 
 **********************************************
 **** Specfem 3-D Solver - MPI version f90 ****
 **********************************************
 
 Running Git package version of the code: 3.0.0
 which is Git undefined in the case of old tar ball builds
 dating undefined in the case of old tar ball builds
 
 
 There are            4  MPI processes
 Processes are numbered from 0 to            3
 
 There is a total of            4  slices
 
  NDIM =            3
 
  NGLLX =            5
  NGLLY =            5
  NGLLZ =            5
 
 using single precision for the calculations
 
 smallest and largest possible floating-point numbers are:   1.1754944E-38
  3.4028235E+38
 
 velocity model:   gll
 
 
 GPU_MODE Active.
 GPU number of devices per node: min =           4
                                 max =           4
 
 total acoustic elements    :           0
 total elastic elements     :     8273664
 total poroelastic elements :           0
 
 ********
 minimum and maximum number of elements
 and points in the CUBIT + SCOTCH mesh:
 
 NSPEC_global_min =      2068416
 NSPEC_global_max =      2068416
 NSPEC_global_max / NSPEC_global_min imbalance =    1.000000      = 
  0.0000000E+00  %
 NSPEC_global_sum =      8273664
 
 NGLOB_global_min =    133330525
 NGLOB_global_max =    133330525
 NGLOB_global_max / NGLOB_global_min imbalance =    1.000000      = 
  0.0000000E+00  %
 NGLOB_global_sum =    533322100
 
 If you have elements of a single type (all acoustic, all elastic, all poroelast
 ic, and without CPML)
 in the whole mesh, then there should be no significant imbalance in the above n
 umbers.
 Otherwise, it is normal to have imbalance in elements and points because the do
 main decomposer
 compensates for the different cost of different elements by partitioning them u
 nevenly among processes.
 ********
 
 
 ********
 Model: P velocity min,max =    340.0000       6000.000    
 Model: S velocity min,max =    196.2991       3464.102    
 
 Model: Poisson's ratio min,max =   0.2499997      0.2500003    
 ********
 
 *********************************************
 *** Verification of simulation parameters ***
 *********************************************
 
 *** Xmin and Xmax of the model =    3554400.       3556800.    
 *** Ymin and Ymax of the model =    400000.0       402400.0    
 *** Zmin and Zmax of the model =   -880.0000       81.79688    
 
 *** Max GLL point distance =    16.48325    
 *** Min GLL point distance =   0.7063904    
 *** Max/min ratio =    23.33447    
 
 *** Max element size =    50.35715    
 *** Min element size =    4.000000    
 *** Max/min ratio =    12.58929    
 
 *** Minimum period resolved =   7.3592566E-02
 *** Maximum suggested time step =   5.9895829E-05
 
 *** for DT :   5.000000000000000E-005
 *** Max stability for wave velocities =   0.4173913    
 
 Elapsed time for checking mesh resolution in seconds =    1.73223888780922     
 ******************************************
 There is a total of            4  slices
 ******************************************
 
 
 kd-tree:
   total data points:      2068416
   theoretical   number of nodes:      4136820
                tree memory size:    126.2457     MB
   actual        number of nodes:      4136831
                tree memory size:    126.2461     MB
   maximum depth   :           25
   creation timing :    1.011368     (s)
 
 
 sources:           1
 
 ********************
  locating sources
 ********************
 
 reading source information from ./DATA/FORCESOLUTION file
 
 no UTM projection
 
 source #            1
   source located in slice            2
                  in element       756425
                  in elastic domain
 
   using force point source: 
     xi coordinate of source in that element:    1.00000000000000     
     eta coordinate of source in that element:   9.074626865782845E-002
     gamma coordinate of source in that element:   0.940749696011220     
 
     component of direction vector in East direction:    1.000000    
     component of direction vector in North direction:   -2.000000    
     component of direction vector in Vertical direction:   -1.000000    
 
     nu1 =    1.00000000000000       0.000000000000000E+000
  0.000000000000000E+000
     nu2 =   0.000000000000000E+000   1.00000000000000     
  0.000000000000000E+000
     nu3 =   0.000000000000000E+000  0.000000000000000E+000
   1.00000000000000     
 
     at (x,y,z) coordinates =    3554970.75000000        401418.940000000     
  -88.4242038726807     
 
   source time function:
     using Ricker source time function
     using a source of dominant frequency    10.0000000000000     
     t0_ricker =   0.120000000000000     
     Ricker frequency:    10.0000000000000       Hz
 
     time shift:   0.000000000000000E+000  seconds
 
   magnitude of the source:
     factor =   1.000000000000000E+015
 
   original (requested) position of the source:
 
             latitude:    401418.940000000     
            longitude:    3554970.75000000     
 
                x:    3554970.75000000     
                y:    401418.940000000     
            depth:   0.100000000000000       km
   topo elevation:    11.5757961273193     
 
   position of the source that will be used:
 
                x:    3554970.75000000     
                y:    401418.940000000     
            depth:   0.100000000000000       km
                z:   -88.4242038726807     
 
   error in location of the source:   4.6928517E-10  m
 
 
 
 maximum error in location of the sources:   4.6928517E-10  m
 
 
 Elapsed time for detection of sources in seconds =   0.136865560896695     
 
 End of source detection - done
 
 
 receivers:
 
 there are         1718  stations in file ./DATA/STATIONS
 saving         1718  stations inside the model in file ./DATA/STATIONS_FILTERED
 excluding            0  stations located outside the model
 
 
 Total number of receivers =         1718
 
 
 ********************
  locating receivers
 ********************
 
 reading receiver information from ./DATA/STATIONS_FILTERED file
 
   located receivers          500 out of        1718
   located receivers         1000 out of        1718
   located receivers         1500 out of        1718
 maximum error in location of all the receivers:   0.2786807      m
 
 Elapsed time for receiver detection in seconds =    129.805524667725     
 
 End of receiver detection - done
 
 source arrays:
   number of sources is            1
   size of source array                 =   1.4305115E-03 MB
                                        =   1.3969839E-06 GB
 
 seismograms:
   seismograms written by all processes
   writing out seismograms at every NTSTEP_BETWEEN_OUTPUT_SEISMOS =        30000
   maximum number of local receivers is          704  in slice            1
   size of maximum seismogram array       =    241.6992     MB
                                          =   0.2360344     GB
 
 
 Total number of samples for seismograms =        30000
 
 found a total of         1718  receivers in all the slices
 
 
 Simulation setup:
 
   no acoustic simulation
 incorporating elastic simulation
   no poroelastic simulation
 
   no attenuation
   no anisotropy
   no oceans
   no gravity
   no movie simulation
 
 
   no dynamic faults
   no kinematic faults
 
   no gravity simulation
 
 
 GPU Preparing Fields and Constants on Device.
 
   minimum memory requested     :    20471.8669548035      MB per process
 
 GPU usage: free  =   11745.88      MB          36 %
            used  =   20734.62      MB          64 %
            total =   32480.50      MB         100 %
 
 
 Elapsed time for preparing timerun in seconds =    7.16661292780191     
 
 ************
  time loop
 ************
               scheme:         Newmark
 
            time step:   4.9999999E-05  s
 number of time steps:        30000
 total simulated time:    1.500000      seconds
 start time: -0.1200000      seconds
 
 All processes are synchronized before time loop
 
 Starting time iteration loop...
 
 Time step #            5
 Time:  -0.1198000      seconds
 Elapsed time in seconds =   0.212740881368518     
 Elapsed time in hh:mm:ss =      0 h 00 m 00 s
 Mean elapsed time per time step in seconds =   4.2548176E-02
 Max norm displacement vector U in all slices (m) =   0.3514993    
 Time steps done =            5  out of        30000
 Time steps remaining =        29995
 Estimated remaining time in seconds =    1276.233    
 Estimated remaining time in hh:mm:ss =      0 h 21 m 16 s
 Estimated total run time in seconds =    1276.445    
 Estimated total run time in hh:mm:ss =      0 h 21 m 16 s
 We have done   1.6666668E-02 % of that
 The run will finish approximately on (in local time): Wed Apr 07, 2021 14:20
 ************************************************************
 **** BEWARE: the above time estimates are not very reliable
 **** because fewer than 100 iterations have been performed
 ************************************************************
 
 Time step #           50
 Time:  -0.1175500      seconds
 Elapsed time in seconds =    2.55183034762740     
 Elapsed time in hh:mm:ss =      0 h 00 m 02 s
 Mean elapsed time per time step in seconds =   5.1036607E-02
 Max norm displacement vector U in all slices (m) =    1.683819    
 Time steps done =           50  out of        30000
 Time steps remaining =        29950
 Estimated remaining time in seconds =    1528.546    
 Estimated remaining time in hh:mm:ss =      0 h 25 m 28 s
 Estimated total run time in seconds =    1531.098    
 Estimated total run time in hh:mm:ss =      0 h 25 m 31 s
 We have done   0.1666667     % of that
 The run will finish approximately on (in local time): Wed Apr 07, 2021 14:24
 ************************************************************
 **** BEWARE: the above time estimates are not very reliable
 **** because fewer than 100 iterations have been performed
 ************************************************************
 
 Time step #          100
 Time:  -0.1150500      seconds
 Elapsed time in seconds =    5.15050184912980     
 Elapsed time in hh:mm:ss =      0 h 00 m 05 s
 Mean elapsed time per time step in seconds =   5.1505018E-02
 Max norm displacement vector U in all slices (m) =    2.757473    
 Time steps done =          100  out of        30000
 Time steps remaining =        29900
 Estimated remaining time in seconds =    1540.000    
 Estimated remaining time in hh:mm:ss =      0 h 25 m 40 s
 Estimated total run time in seconds =    1545.151    
 Estimated total run time in hh:mm:ss =      0 h 25 m 45 s
 We have done   0.3333333     % of that
 The run will finish approximately on (in local time): Wed Apr 07, 2021 14:25
 
 Time step #          150
 Time:  -0.1125500      seconds
 Elapsed time in seconds =    7.74867131561041     
 Elapsed time in hh:mm:ss =      0 h 00 m 07 s
 Mean elapsed time per time step in seconds =   5.1657807E-02
 Max norm displacement vector U in all slices (m) =    4.737901    
 Time steps done =          150  out of        30000
 Time steps remaining =        29850
 Estimated remaining time in seconds =    1541.986    
 Estimated remaining time in hh:mm:ss =      0 h 25 m 41 s
 Estimated total run time in seconds =    1549.734    
 Estimated total run time in hh:mm:ss =      0 h 25 m 49 s
 We have done   0.5000000     % of that
 The run will finish approximately on (in local time): Wed Apr 07, 2021 14:25
 
 Time step #          200
 Time:  -0.1100500      seconds
 Elapsed time in seconds =    10.3463194258511     
 Elapsed time in hh:mm:ss =      0 h 00 m 10 s
 Mean elapsed time per time step in seconds =   5.1731598E-02
 Max norm displacement vector U in all slices (m) =    7.744665    
 Time steps done =          200  out of        30000
 Time steps remaining =        29800
 Estimated remaining time in seconds =    1541.602    
 Estimated remaining time in hh:mm:ss =      0 h 25 m 41 s
 Estimated total run time in seconds =    1551.948    
 Estimated total run time in hh:mm:ss =      0 h 25 m 51 s
 We have done   0.6666667     % of that
 The run will finish approximately on (in local time): Wed Apr 07, 2021 14:25
 
 Time step #          250
 Time:  -0.1075500      seconds
 Elapsed time in seconds =    12.9444689769298     
 Elapsed time in hh:mm:ss =      0 h 00 m 12 s
 Mean elapsed time per time step in seconds =   5.1777877E-02
 Max norm displacement vector U in all slices (m) =    12.70816    
 Time steps done =          250  out of        30000
 Time steps remaining =        29750
 Estimated remaining time in seconds =    1540.392    
 Estimated remaining time in hh:mm:ss =      0 h 25 m 40 s
 Estimated total run time in seconds =    1553.336    
 Estimated total run time in hh:mm:ss =      0 h 25 m 53 s
 We have done   0.8333333     % of that
 The run will finish approximately on (in local time): Wed Apr 07, 2021 14:25
 
 Time step #          300
 Time:  -0.1050500      seconds
 Elapsed time in seconds =    15.5425141453743     
 Elapsed time in hh:mm:ss =      0 h 00 m 15 s
 Mean elapsed time per time step in seconds =   5.1808380E-02
 Max norm displacement vector U in all slices (m) =    20.43895    
 Time steps done =          300  out of        30000
 Time steps remaining =        29700
 Estimated remaining time in seconds =    1538.709    
 Estimated remaining time in hh:mm:ss =      0 h 25 m 38 s
 Estimated total run time in seconds =    1554.251    
 Estimated total run time in hh:mm:ss =      0 h 25 m 54 s
 We have done    1.000000     % of that
 The run will finish approximately on (in local time): Wed Apr 07, 2021 14:25
 
 Time step #          350
 Time:  -0.1025500      seconds
 Elapsed time in seconds =    18.1402680296451     
 Elapsed time in hh:mm:ss =      0 h 00 m 18 s
 Mean elapsed time per time step in seconds =   5.1829338E-02
 Max norm displacement vector U in all slices (m) =    32.47775    
 Time steps done =          350  out of        30000
 Time steps remaining =        29650
 Estimated remaining time in seconds =    1536.740    
 Estimated remaining time in hh:mm:ss =      0 h 25 m 36 s
 Estimated total run time in seconds =    1554.880    
 Estimated total run time in hh:mm:ss =      0 h 25 m 54 s
 We have done    1.166667     % of that
 The run will finish approximately on (in local time): Wed Apr 07, 2021 14:25
 
 Time step #          400
 Time:  -0.1000500      seconds
 Elapsed time in seconds =    20.7389321960509     
 Elapsed time in hh:mm:ss =      0 h 00 m 20 s
 Mean elapsed time per time step in seconds =   5.1847331E-02
 Max norm displacement vector U in all slices (m) =    50.89318    
 Time steps done =          400  out of        30000
 Time steps remaining =        29600
 Estimated remaining time in seconds =    1534.681    
 Estimated remaining time in hh:mm:ss =      0 h 25 m 34 s
 Estimated total run time in seconds =    1555.420    
 Estimated total run time in hh:mm:ss =      0 h 25 m 55 s
 We have done    1.333333     % of that
 The run will finish approximately on (in local time): Wed Apr 07, 2021 14:25
 
 Time step #          450
 Time:  -9.7549997E-02  seconds
 Elapsed time in seconds =    23.3368321275339     
 Elapsed time in hh:mm:ss =      0 h 00 m 23 s
 Mean elapsed time per time step in seconds =   5.1859628E-02
 Max norm displacement vector U in all slices (m) =    78.68758    
 Time steps done =          450  out of        30000
 Time steps remaining =        29550
 Estimated remaining time in seconds =    1532.452    
 Estimated remaining time in hh:mm:ss =      0 h 25 m 32 s
 Estimated total run time in seconds =    1555.789    
 Estimated total run time in hh:mm:ss =      0 h 25 m 55 s
 We have done    1.500000     % of that
 The run will finish approximately on (in local time): Wed Apr 07, 2021 14:25
 
 Time step #          500
 Time:  -9.5050000E-02  seconds
 Elapsed time in seconds =    25.9346557706594     
 Elapsed time in hh:mm:ss =      0 h 00 m 25 s
 Mean elapsed time per time step in seconds =   5.1869310E-02
 Max norm displacement vector U in all slices (m) =    119.9410    
 Time steps done =          500  out of        30000
 Time steps remaining =        29500
 Estimated remaining time in seconds =    1530.145    
 Estimated remaining time in hh:mm:ss =      0 h 25 m 30 s
 Estimated total run time in seconds =    1556.079    
 Estimated total run time in hh:mm:ss =      0 h 25 m 56 s
 We have done    1.666667     % of that
 The run will finish approximately on (in local time): Wed Apr 07, 2021 14:25
 
 Time step #          550
 Time:  -9.2550002E-02  seconds
 Elapsed time in seconds =    28.5325568355620     
 Elapsed time in hh:mm:ss =      0 h 00 m 28 s
 Mean elapsed time per time step in seconds =   5.1877376E-02
 Max norm displacement vector U in all slices (m) =    180.3396    
 Time steps done =          550  out of        30000
 Time steps remaining =        29450
 Estimated remaining time in seconds =    1527.789    
 Estimated remaining time in hh:mm:ss =      0 h 25 m 27 s
 Estimated total run time in seconds =    1556.321    
 Estimated total run time in hh:mm:ss =      0 h 25 m 56 s
 We have done    1.833333     % of that
 The run will finish approximately on (in local time): Wed Apr 07, 2021 14:24
 
 Time step #          600
 Time:  -9.0049997E-02  seconds
 Elapsed time in seconds =    31.1304425382987     
 Elapsed time in hh:mm:ss =      0 h 00 m 31 s
 Mean elapsed time per time step in seconds =   5.1884070E-02
 Max norm displacement vector U in all slices (m) =    267.3083    
 Time steps done =          600  out of        30000
 Time steps remaining =        29400
 Estimated remaining time in seconds =    1525.392    
 Estimated remaining time in hh:mm:ss =      0 h 25 m 25 s
 Estimated total run time in seconds =    1556.522    
 Estimated total run time in hh:mm:ss =      0 h 25 m 56 s
 We have done    2.000000     % of that
 The run will finish approximately on (in local time): Wed Apr 07, 2021 14:24
 
 Time step #          650
 Time:  -8.7549999E-02  seconds
 Elapsed time in seconds =    33.7281081452966     
 Elapsed time in hh:mm:ss =      0 h 00 m 33 s
 Mean elapsed time per time step in seconds =   5.1889397E-02
 Max norm displacement vector U in all slices (m) =    390.6750    
 Time steps done =          650  out of        30000
 Time steps remaining =        29350
 Estimated remaining time in seconds =    1522.954    
 Estimated remaining time in hh:mm:ss =      0 h 25 m 22 s
 Estimated total run time in seconds =    1556.682    
 Estimated total run time in hh:mm:ss =      0 h 25 m 56 s
 We have done    2.166667     % of that
 The run will finish approximately on (in local time): Wed Apr 07, 2021 14:24
 
 Time step #          700
 Time:  -8.5050002E-02  seconds
 Elapsed time in seconds =    36.3259454881772     
 Elapsed time in hh:mm:ss =      0 h 00 m 36 s
 Mean elapsed time per time step in seconds =   5.1894207E-02
 Max norm displacement vector U in all slices (m) =    562.8347    
 Time steps done =          700  out of        30000
 Time steps remaining =        29300
 Estimated remaining time in seconds =    1520.500    
 Estimated remaining time in hh:mm:ss =      0 h 25 m 20 s
 Estimated total run time in seconds =    1556.826    
 Estimated total run time in hh:mm:ss =      0 h 25 m 56 s
 We have done    2.333333     % of that
 The run will finish approximately on (in local time): Wed Apr 07, 2021 14:24
 
 Time step #          750
 Time:  -8.2549997E-02  seconds
 Elapsed time in seconds =    38.9245092058554     
 Elapsed time in hh:mm:ss =      0 h 00 m 38 s
 Mean elapsed time per time step in seconds =   5.1899347E-02
 Max norm displacement vector U in all slices (m) =    799.2221    
 Time steps done =          750  out of        30000
 Time steps remaining =        29250
 Estimated remaining time in seconds =    1518.056    
 Estimated remaining time in hh:mm:ss =      0 h 25 m 18 s
 Estimated total run time in seconds =    1556.980    
 Estimated total run time in hh:mm:ss =      0 h 25 m 56 s
 We have done    2.500000     % of that
 The run will finish approximately on (in local time): Wed Apr 07, 2021 14:24
 
 Time step #          800
 Time:  -8.0049999E-02  seconds
 Elapsed time in seconds =    41.5221505686641     
 Elapsed time in hh:mm:ss =      0 h 00 m 41 s
 Mean elapsed time per time step in seconds =   5.1902689E-02
 Max norm displacement vector U in all slices (m) =    1118.436    
 Time steps done =          800  out of        30000
 Time steps remaining =        29200
 Estimated remaining time in seconds =    1515.558    
 Estimated remaining time in hh:mm:ss =      0 h 25 m 15 s
 Estimated total run time in seconds =    1557.081    
 Estimated total run time in hh:mm:ss =      0 h 25 m 57 s
 We have done    2.666667     % of that
 The run will finish approximately on (in local time): Wed Apr 07, 2021 14:24
 
 Time step #          850
 Time:  -7.7550001E-02  seconds
 Elapsed time in seconds =    44.1196066197008     
 Elapsed time in hh:mm:ss =      0 h 00 m 44 s
 Mean elapsed time per time step in seconds =   5.1905420E-02
 Max norm displacement vector U in all slices (m) =    1542.105    
 Time steps done =          850  out of        30000
 Time steps remaining =        29150
 Estimated remaining time in seconds =    1513.043    
 Estimated remaining time in hh:mm:ss =      0 h 25 m 13 s
 Estimated total run time in seconds =    1557.163    
 Estimated total run time in hh:mm:ss =      0 h 25 m 57 s
 We have done    2.833333     % of that
 The run will finish approximately on (in local time): Wed Apr 07, 2021 14:25
 
 Time step #          900
 Time:  -7.5049996E-02  seconds
 Elapsed time in seconds =    46.7174201961607     
 Elapsed time in hh:mm:ss =      0 h 00 m 46 s
 Mean elapsed time per time step in seconds =   5.1908243E-02
 Max norm displacement vector U in all slices (m) =    2094.644    
 Time steps done =          900  out of        30000
 Time steps remaining =        29100
 Estimated remaining time in seconds =    1510.530    
 Estimated remaining time in hh:mm:ss =      0 h 25 m 10 s
 Estimated total run time in seconds =    1557.247    
 Estimated total run time in hh:mm:ss =      0 h 25 m 57 s
 We have done    3.000000     % of that
 The run will finish approximately on (in local time): Wed Apr 07, 2021 14:25
 
 Time step #          950
 Time:  -7.2549999E-02  seconds
 Elapsed time in seconds =    49.3152171289548     
 Elapsed time in hh:mm:ss =      0 h 00 m 49 s
 Mean elapsed time per time step in seconds =   5.1910754E-02
 Max norm displacement vector U in all slices (m) =    2802.076    
 Time steps done =          950  out of        30000
 Time steps remaining =        29050
 Estimated remaining time in seconds =    1508.007    
 Estimated remaining time in hh:mm:ss =      0 h 25 m 08 s
 Estimated total run time in seconds =    1557.323    
 Estimated total run time in hh:mm:ss =      0 h 25 m 57 s
 We have done    3.166667     % of that
 The run will finish approximately on (in local time): Wed Apr 07, 2021 14:25
 
 Time step #         1000
 Time:  -7.0050001E-02  seconds
 Elapsed time in seconds =    51.9130208389834     
 Elapsed time in hh:mm:ss =      0 h 00 m 51 s
 Mean elapsed time per time step in seconds =   5.1913019E-02
 Max norm displacement vector U in all slices (m) =    3690.838    
 Time steps done =         1000  out of        30000
 Time steps remaining =        29000
 Estimated remaining time in seconds =    1505.478    
 Estimated remaining time in hh:mm:ss =      0 h 25 m 05 s
 Estimated total run time in seconds =    1557.391    
 Estimated total run time in hh:mm:ss =      0 h 25 m 57 s
 We have done    3.333333     % of that
 The run will finish approximately on (in local time): Wed Apr 07, 2021 14:25
 
 Time step #         1050
 Time:  -6.7550004E-02  seconds
 Elapsed time in seconds =    54.5117537789047     
 Elapsed time in hh:mm:ss =      0 h 00 m 54 s
 Mean elapsed time per time step in seconds =   5.1915955E-02
 Max norm displacement vector U in all slices (m) =    4785.224    
 Time steps done =         1050  out of        30000
 Time steps remaining =        28950
 Estimated remaining time in seconds =    1502.967    
 Estimated remaining time in hh:mm:ss =      0 h 25 m 02 s
 Estimated total run time in seconds =    1557.479    
 Estimated total run time in hh:mm:ss =      0 h 25 m 57 s
 We have done    3.500000     % of that
 The run will finish approximately on (in local time): Wed Apr 07, 2021 14:25
 
 Time step #         1100
 Time:  -6.5049998E-02  seconds
 Elapsed time in seconds =    57.1096053691581     
 Elapsed time in hh:mm:ss =      0 h 00 m 57 s
 Mean elapsed time per time step in seconds =   5.1917825E-02
 Max norm displacement vector U in all slices (m) =    6104.716    
 Time steps done =         1100  out of        30000
 Time steps remaining =        28900
 Estimated remaining time in seconds =    1500.425    
 Estimated remaining time in hh:mm:ss =      0 h 25 m 00 s
 Estimated total run time in seconds =    1557.535    
 Estimated total run time in hh:mm:ss =      0 h 25 m 57 s
 We have done    3.666667     % of that
 The run will finish approximately on (in local time): Wed Apr 07, 2021 14:25
 
 Time step #         1150
 Time:  -6.2550001E-02  seconds
 Elapsed time in seconds =    59.7078938065097     
 Elapsed time in hh:mm:ss =      0 h 00 m 59 s
 Mean elapsed time per time step in seconds =   5.1919907E-02
 Max norm displacement vector U in all slices (m) =    7660.065    
 Time steps done =         1150  out of        30000
 Time steps remaining =        28850
 Estimated remaining time in seconds =    1497.889    
 Estimated remaining time in hh:mm:ss =      0 h 24 m 57 s
 Estimated total run time in seconds =    1557.597    
 Estimated total run time in hh:mm:ss =      0 h 25 m 57 s
 We have done    3.833333     % of that
 The run will finish approximately on (in local time): Wed Apr 07, 2021 14:25
 
 Time step #         1200
 Time:  -6.0050000E-02  seconds
 Elapsed time in seconds =    62.3056891653687     
 Elapsed time in hh:mm:ss =      0 h 01 m 02 s
 Mean elapsed time per time step in seconds =   5.1921409E-02
 Max norm displacement vector U in all slices (m) =    9449.158    
 Time steps done =         1200  out of        30000
 Time steps remaining =        28800
 Estimated remaining time in seconds =    1495.337    
 Estimated remaining time in hh:mm:ss =      0 h 24 m 55 s
 Estimated total run time in seconds =    1557.642    
 Estimated total run time in hh:mm:ss =      0 h 25 m 57 s
 We have done    4.000000     % of that
 The run will finish approximately on (in local time): Wed Apr 07, 2021 14:25
 
 Time step #         1250
 Time:  -5.7549998E-02  seconds
 Elapsed time in seconds =    64.9035224672407     
 Elapsed time in hh:mm:ss =      0 h 01 m 04 s
 Mean elapsed time per time step in seconds =   5.1922817E-02
 Max norm displacement vector U in all slices (m) =    11452.34    
 Time steps done =         1250  out of        30000
 Time steps remaining =        28750
 Estimated remaining time in seconds =    1492.781    
 Estimated remaining time in hh:mm:ss =      0 h 24 m 52 s
 Estimated total run time in seconds =    1557.685    
 Estimated total run time in hh:mm:ss =      0 h 25 m 57 s
 We have done    4.166667     % of that
 The run will finish approximately on (in local time): Wed Apr 07, 2021 14:25
 
 Time step #         1300
 Time:  -5.5050001E-02  seconds
 Elapsed time in seconds =    67.5017136642709     
 Elapsed time in hh:mm:ss =      0 h 01 m 07 s
 Mean elapsed time per time step in seconds =   5.1924396E-02
 Max norm displacement vector U in all slices (m) =    13627.96    
 Time steps done =         1300  out of        30000
 Time steps remaining =        28700
 Estimated remaining time in seconds =    1490.230    
 Estimated remaining time in hh:mm:ss =      0 h 24 m 50 s
 Estimated total run time in seconds =    1557.732    
 Estimated total run time in hh:mm:ss =      0 h 25 m 57 s
 We have done    4.333333     % of that
 The run will finish approximately on (in local time): Wed Apr 07, 2021 14:25
 
 Time step #         1350
 Time:  -5.2549999E-02  seconds
 Elapsed time in seconds =    70.0996032198891     
 Elapsed time in hh:mm:ss =      0 h 01 m 10 s
 Mean elapsed time per time step in seconds =   5.1925633E-02
 Max norm displacement vector U in all slices (m) =    15908.44    
 Time steps done =         1350  out of        30000
 Time steps remaining =        28650
 Estimated remaining time in seconds =    1487.669    
 Estimated remaining time in hh:mm:ss =      0 h 24 m 47 s
 Estimated total run time in seconds =    1557.769    
 Estimated total run time in hh:mm:ss =      0 h 25 m 57 s
 We have done    4.500000     % of that
 The run will finish approximately on (in local time): Wed Apr 07, 2021 14:25
 
 Time step #         1400
 Time:  -5.0050002E-02  seconds
 Elapsed time in seconds =    72.6974517870694     
 Elapsed time in hh:mm:ss =      0 h 01 m 12 s
 Mean elapsed time per time step in seconds =   5.1926751E-02
 Max norm displacement vector U in all slices (m) =    18197.80    
 Time steps done =         1400  out of        30000
 Time steps remaining =        28600
 Estimated remaining time in seconds =    1485.105    
 Estimated remaining time in hh:mm:ss =      0 h 24 m 45 s
 Estimated total run time in seconds =    1557.802    
 Estimated total run time in hh:mm:ss =      0 h 25 m 57 s
 We have done    4.666667     % of that
 The run will finish approximately on (in local time): Wed Apr 07, 2021 14:25
 
 Time step #         1450
 Time:  -4.7550000E-02  seconds
 Elapsed time in seconds =    75.2954075606540     
 Elapsed time in hh:mm:ss =      0 h 01 m 15 s
 Mean elapsed time per time step in seconds =   5.1927868E-02
 Max norm displacement vector U in all slices (m) =    20370.84    
 Time steps done =         1450  out of        30000
 Time steps remaining =        28550
 Estimated remaining time in seconds =    1482.541    
 Estimated remaining time in hh:mm:ss =      0 h 24 m 42 s
 Estimated total run time in seconds =    1557.836    
 Estimated total run time in hh:mm:ss =      0 h 25 m 57 s
 We have done    4.833333     % of that
 The run will finish approximately on (in local time): Wed Apr 07, 2021 14:25
 
 Time step #         1500
 Time:  -4.5049999E-02  seconds
 Elapsed time in seconds =    77.8929892312735     
 Elapsed time in hh:mm:ss =      0 h 01 m 17 s
 Mean elapsed time per time step in seconds =   5.1928658E-02
 Max norm displacement vector U in all slices (m) =    22275.42    
 Time steps done =         1500  out of        30000
 Time steps remaining =        28500
 Estimated remaining time in seconds =    1479.967    
 Estimated remaining time in hh:mm:ss =      0 h 24 m 39 s
 Estimated total run time in seconds =    1557.860    
 Estimated total run time in hh:mm:ss =      0 h 25 m 57 s
 We have done    5.000000     % of that
 The run will finish approximately on (in local time): Wed Apr 07, 2021 14:25
 
 Time step #         1550
 Time:  -4.2550001E-02  seconds
 Elapsed time in seconds =    80.4911557333544     
 Elapsed time in hh:mm:ss =      0 h 01 m 20 s
 Mean elapsed time per time step in seconds =   5.1929779E-02
 Max norm displacement vector U in all slices (m) =    23737.44    
 Time steps done =         1550  out of        30000
 Time steps remaining =        28450
 Estimated remaining time in seconds =    1477.402    
 Estimated remaining time in hh:mm:ss =      0 h 24 m 37 s
 Estimated total run time in seconds =    1557.893    
 Estimated total run time in hh:mm:ss =      0 h 25 m 57 s
 We have done    5.166667     % of that
 The run will finish approximately on (in local time): Wed Apr 07, 2021 14:25
 
 Time step #         1600
 Time:  -4.0050000E-02  seconds
 Elapsed time in seconds =    83.0890888702124     
 Elapsed time in hh:mm:ss =      0 h 01 m 23 s
 Mean elapsed time per time step in seconds =   5.1930681E-02
 Max norm displacement vector U in all slices (m) =    24569.74    
 Time steps done =         1600  out of        30000
 Time steps remaining =        28400
 Estimated remaining time in seconds =    1474.831    
 Estimated remaining time in hh:mm:ss =      0 h 24 m 34 s
 Estimated total run time in seconds =    1557.920    
 Estimated total run time in hh:mm:ss =      0 h 25 m 57 s
 We have done    5.333333     % of that
 The run will finish approximately on (in local time): Wed Apr 07, 2021 14:25
 
 Time step #         1650
 Time:  -3.7549999E-02  seconds
 Elapsed time in seconds =    85.6869289996102     
 Elapsed time in hh:mm:ss =      0 h 01 m 25 s
 Mean elapsed time per time step in seconds =   5.1931471E-02
 Max norm displacement vector U in all slices (m) =    24584.06    
 Time steps done =         1650  out of        30000
 Time steps remaining =        28350
 Estimated remaining time in seconds =    1472.257    
 Estimated remaining time in hh:mm:ss =      0 h 24 m 32 s
 Estimated total run time in seconds =    1557.944    
 Estimated total run time in hh:mm:ss =      0 h 25 m 57 s
 We have done    5.500000     % of that
 The run will finish approximately on (in local time): Wed Apr 07, 2021 14:25
 
 Time step #         1700
 Time:  -3.5050001E-02  seconds
 Elapsed time in seconds =    88.2846001144499     
 Elapsed time in hh:mm:ss =      0 h 01 m 28 s
 Mean elapsed time per time step in seconds =   5.1932119E-02
 Max norm displacement vector U in all slices (m) =    23606.25    
 Time steps done =         1700  out of        30000
 Time steps remaining =        28300
 Estimated remaining time in seconds =    1469.679    
 Estimated remaining time in hh:mm:ss =      0 h 24 m 29 s
 Estimated total run time in seconds =    1557.964    
 Estimated total run time in hh:mm:ss =      0 h 25 m 57 s
 We have done    5.666667     % of that
 The run will finish approximately on (in local time): Wed Apr 07, 2021 14:24
 
 Time step #         1750
 Time:  -3.2550000E-02  seconds
 Elapsed time in seconds =    93.1540373321623     
 Elapsed time in hh:mm:ss =      0 h 01 m 33 s
 Mean elapsed time per time step in seconds =   5.3230878E-02
 Max norm displacement vector U in all slices (m) =    21493.13    
 Time steps done =         1750  out of        30000
 Time steps remaining =        28250
 Estimated remaining time in seconds =    1503.772    
 Estimated remaining time in hh:mm:ss =      0 h 25 m 03 s
 Estimated total run time in seconds =    1596.926    
 Estimated total run time in hh:mm:ss =      0 h 26 m 36 s
 We have done    5.833333     % of that
 The run will finish approximately on (in local time): Wed Apr 07, 2021 14:25
 
 Time step #         1800
 Time:  -3.0050000E-02  seconds
 Elapsed time in seconds =    95.7508746720850     
 Elapsed time in hh:mm:ss =      0 h 01 m 35 s
 Mean elapsed time per time step in seconds =   5.3194929E-02
 Max norm displacement vector U in all slices (m) =    18150.20    
 Time steps done =         1800  out of        30000
 Time steps remaining =        28200
 Estimated remaining time in seconds =    1500.097    
 Estimated remaining time in hh:mm:ss =      0 h 25 m 00 s
 Estimated total run time in seconds =    1595.848    
 Estimated total run time in hh:mm:ss =      0 h 26 m 35 s
 We have done    6.000000     % of that
 The run will finish approximately on (in local time): Wed Apr 07, 2021 14:25
 
 Time step #         1850
 Time:  -2.7550001E-02  seconds
 Elapsed time in seconds =    98.3480015881360     
 Elapsed time in hh:mm:ss =      0 h 01 m 38 s
 Mean elapsed time per time step in seconds =   5.3161081E-02
 Max norm displacement vector U in all slices (m) =    13547.96    
 Time steps done =         1850  out of        30000
 Time steps remaining =        28150
 Estimated remaining time in seconds =    1496.484    
 Estimated remaining time in hh:mm:ss =      0 h 24 m 56 s
 Estimated total run time in seconds =    1594.832    
 Estimated total run time in hh:mm:ss =      0 h 26 m 34 s
 We have done    6.166667     % of that
 The run will finish approximately on (in local time): Wed Apr 07, 2021 14:25
 
 Time step #         1900
 Time:  -2.5049999E-02  seconds
 Elapsed time in seconds =    100.944795348682     
 Elapsed time in hh:mm:ss =      0 h 01 m 40 s
 Mean elapsed time per time step in seconds =   5.3128839E-02
 Max norm displacement vector U in all slices (m) =    7735.237    
 Time steps done =         1900  out of        30000
 Time steps remaining =        28100
 Estimated remaining time in seconds =    1492.920    
 Estimated remaining time in hh:mm:ss =      0 h 24 m 52 s
 Estimated total run time in seconds =    1593.865    
 Estimated total run time in hh:mm:ss =      0 h 26 m 33 s
 We have done    6.333333     % of that
 The run will finish approximately on (in local time): Wed Apr 07, 2021 14:25
 
 Time step #         1950
 Time:  -2.2550000E-02  seconds
 Elapsed time in seconds =    103.541657092050     
 Elapsed time in hh:mm:ss =      0 h 01 m 43 s
 Mean elapsed time per time step in seconds =   5.3098287E-02
 Max norm displacement vector U in all slices (m) =    848.3326    
 Time steps done =         1950  out of        30000
 Time steps remaining =        28050
 Estimated remaining time in seconds =    1489.407    
 Estimated remaining time in hh:mm:ss =      0 h 24 m 49 s
 Estimated total run time in seconds =    1592.949    
 Estimated total run time in hh:mm:ss =      0 h 26 m 32 s
 We have done    6.500000     % of that
 The run will finish approximately on (in local time): Wed Apr 07, 2021 14:26
 
 Time step #         2000
 Time:  -2.0050000E-02  seconds
 Elapsed time in seconds =    106.138859176077     
 Elapsed time in hh:mm:ss =      0 h 01 m 46 s
 Mean elapsed time per time step in seconds =   5.3069431E-02
 Max norm displacement vector U in all slices (m) =    6893.510    
 Time steps done =         2000  out of        30000
 Time steps remaining =        28000
 Estimated remaining time in seconds =    1485.944    
 Estimated remaining time in hh:mm:ss =      0 h 24 m 45 s
 Estimated total run time in seconds =    1592.083    
 Estimated total run time in hh:mm:ss =      0 h 26 m 32 s
 We have done    6.666667     % of that
 The run will finish approximately on (in local time): Wed Apr 07, 2021 14:26
 
 Time step #         2050
 Time:  -1.7550001E-02  seconds
 Elapsed time in seconds =    108.736115649343     
 Elapsed time in hh:mm:ss =      0 h 01 m 48 s
 Mean elapsed time per time step in seconds =   5.3042009E-02
 Max norm displacement vector U in all slices (m) =    15181.23    
 Time steps done =         2050  out of        30000
 Time steps remaining =        27950
 Estimated remaining time in seconds =    1482.524    
 Estimated remaining time in hh:mm:ss =      0 h 24 m 42 s
 Estimated total run time in seconds =    1591.260    
 Estimated total run time in hh:mm:ss =      0 h 26 m 31 s
 We have done    6.833333     % of that
 The run will finish approximately on (in local time): Wed Apr 07, 2021 14:26
 
 Time step #         2100
 Time:  -1.5050000E-02  seconds
 Elapsed time in seconds =    111.332907059230     
 Elapsed time in hh:mm:ss =      0 h 01 m 51 s
 Mean elapsed time per time step in seconds =   5.3015672E-02
 Max norm displacement vector U in all slices (m) =    23644.57    
 Time steps done =         2100  out of        30000
 Time steps remaining =        27900
 Estimated remaining time in seconds =    1479.137    
 Estimated remaining time in hh:mm:ss =      0 h 24 m 39 s
 Estimated total run time in seconds =    1590.470    
 Estimated total run time in hh:mm:ss =      0 h 26 m 30 s
 We have done    7.000000     % of that
 The run will finish approximately on (in local time): Wed Apr 07, 2021 14:26
 
 Time step #         2150
 Time:  -1.2550000E-02  seconds
 Elapsed time in seconds =    113.930453339592     
 Elapsed time in hh:mm:ss =      0 h 01 m 53 s
 Mean elapsed time per time step in seconds =   5.2990910E-02
 Max norm displacement vector U in all slices (m) =    31866.32    
 Time steps done =         2150  out of        30000
 Time steps remaining =        27850
 Estimated remaining time in seconds =    1475.797    
 Estimated remaining time in hh:mm:ss =      0 h 24 m 35 s
 Estimated total run time in seconds =    1589.727    
 Estimated total run time in hh:mm:ss =      0 h 26 m 29 s
 We have done    7.166667     % of that
 The run will finish approximately on (in local time): Wed Apr 07, 2021 14:26
 
 Time step #         2200
 Time:  -1.0050000E-02  seconds
 Elapsed time in seconds =    116.708135548048     
 Elapsed time in hh:mm:ss =      0 h 01 m 56 s
 Mean elapsed time per time step in seconds =   5.3049151E-02
 Max norm displacement vector U in all slices (m) =    39412.05    
 Time steps done =         2200  out of        30000
 Time steps remaining =        27800
 Estimated remaining time in seconds =    1474.766    
 Estimated remaining time in hh:mm:ss =      0 h 24 m 34 s
 Estimated total run time in seconds =    1591.475    
 Estimated total run time in hh:mm:ss =      0 h 26 m 31 s
 We have done    7.333333     % of that
 The run will finish approximately on (in local time): Wed Apr 07, 2021 14:26
 
 Time step #         2250
 Time:  -7.5500002E-03  seconds
 Elapsed time in seconds =    119.305131507106     
 Elapsed time in hh:mm:ss =      0 h 01 m 59 s
 Mean elapsed time per time step in seconds =   5.3024504E-02
 Max norm displacement vector U in all slices (m) =    45861.70    
 Time steps done =         2250  out of        30000
 Time steps remaining =        27750
 Estimated remaining time in seconds =    1471.430    
 Estimated remaining time in hh:mm:ss =      0 h 24 m 31 s
 Estimated total run time in seconds =    1590.735    
 Estimated total run time in hh:mm:ss =      0 h 26 m 30 s
 We have done    7.500000     % of that
 The run will finish approximately on (in local time): Wed Apr 07, 2021 14:26
 
 Time step #         2300
 Time:  -5.0499998E-03  seconds
 Elapsed time in seconds =    121.902120422572     
 Elapsed time in hh:mm:ss =      0 h 02 m 01 s
 Mean elapsed time per time step in seconds =   5.3000923E-02
 Max norm displacement vector U in all slices (m) =    50842.18    
 Time steps done =         2300  out of        30000
 Time steps remaining =        27700
 Estimated remaining time in seconds =    1468.125    
 Estimated remaining time in hh:mm:ss =      0 h 24 m 28 s
 Estimated total run time in seconds =    1590.028    
 Estimated total run time in hh:mm:ss =      0 h 26 m 30 s
 We have done    7.666667     % of that
 The run will finish approximately on (in local time): Wed Apr 07, 2021 14:25
 
 Time step #         2350
 Time:  -2.5500001E-03  seconds
 Elapsed time in seconds =    124.498946856707     
 Elapsed time in hh:mm:ss =      0 h 02 m 04 s
 Mean elapsed time per time step in seconds =   5.2978273E-02
 Max norm displacement vector U in all slices (m) =    54057.23    
 Time steps done =         2350  out of        30000
 Time steps remaining =        27650
 Estimated remaining time in seconds =    1464.849    
 Estimated remaining time in hh:mm:ss =      0 h 24 m 24 s
 Estimated total run time in seconds =    1589.348    
 Estimated total run time in hh:mm:ss =      0 h 26 m 29 s
 We have done    7.833333     % of that
 The run will finish approximately on (in local time): Wed Apr 07, 2021 14:25
 
 Time step #         2400
 Time:  -4.9999999E-05  seconds
 Elapsed time in seconds =    127.096154240891     
 Elapsed time in hh:mm:ss =      0 h 02 m 07 s
 Mean elapsed time per time step in seconds =   5.2956730E-02
 Max norm displacement vector U in all slices (m) =    55312.23    
 Time steps done =         2400  out of        30000
 Time steps remaining =        27600
 Estimated remaining time in seconds =    1461.606    
 Estimated remaining time in hh:mm:ss =      0 h 24 m 21 s
 Estimated total run time in seconds =    1588.702    
 Estimated total run time in hh:mm:ss =      0 h 26 m 28 s
 We have done    8.000000     % of that
 The run will finish approximately on (in local time): Wed Apr 07, 2021 14:25
 
 Time step #         2450
 Time:   2.4500000E-03  seconds
 Elapsed time in seconds =    129.693288927898     
 Elapsed time in hh:mm:ss =      0 h 02 m 09 s
 Mean elapsed time per time step in seconds =   5.2936036E-02
 Max norm displacement vector U in all slices (m) =    54530.37    
 Time steps done =         2450  out of        30000
 Time steps remaining =        27550
 Estimated remaining time in seconds =    1458.388    
 Estimated remaining time in hh:mm:ss =      0 h 24 m 18 s
 Estimated total run time in seconds =    1588.081    
 Estimated total run time in hh:mm:ss =      0 h 26 m 28 s
 We have done    8.166667     % of that
 The run will finish approximately on (in local time): Wed Apr 07, 2021 14:25
 
 Time step #         2500
 Time:   4.9500000E-03  seconds
 Elapsed time in seconds =    132.289946730249     
 Elapsed time in hh:mm:ss =      0 h 02 m 12 s
 Mean elapsed time per time step in seconds =   5.2915979E-02
 Max norm displacement vector U in all slices (m) =    51759.39    
 Time steps done =         2500  out of        30000
 Time steps remaining =        27500
 Estimated remaining time in seconds =    1455.189    
 Estimated remaining time in hh:mm:ss =      0 h 24 m 15 s
 Estimated total run time in seconds =    1587.479    
 Estimated total run time in hh:mm:ss =      0 h 26 m 27 s
 We have done    8.333333     % of that
 The run will finish approximately on (in local time): Wed Apr 07, 2021 14:25
 
 Time step #         2550
 Time:   7.4499999E-03  seconds
 Elapsed time in seconds =    134.886907576583     
 Elapsed time in hh:mm:ss =      0 h 02 m 14 s
 Mean elapsed time per time step in seconds =   5.2896827E-02
 Max norm displacement vector U in all slices (m) =    47167.41    
 Time steps done =         2550  out of        30000
 Time steps remaining =        27450
 Estimated remaining time in seconds =    1452.018    
 Estimated remaining time in hh:mm:ss =      0 h 24 m 12 s
 Estimated total run time in seconds =    1586.905    
 Estimated total run time in hh:mm:ss =      0 h 26 m 26 s
 We have done    8.500000     % of that
 The run will finish approximately on (in local time): Wed Apr 07, 2021 14:25
 
 Time step #         2600
 Time:   9.9499999E-03  seconds
 Elapsed time in seconds =    137.483816091903     
 Elapsed time in hh:mm:ss =      0 h 02 m 17 s
 Mean elapsed time per time step in seconds =   5.2878391E-02
 Max norm displacement vector U in all slices (m) =    41028.75    
 Time steps done =         2600  out of        30000
 Time steps remaining =        27400
 Estimated remaining time in seconds =    1448.868    
 Estimated remaining time in hh:mm:ss =      0 h 24 m 08 s
 Estimated total run time in seconds =    1586.352    
 Estimated total run time in hh:mm:ss =      0 h 26 m 26 s
 We have done    8.666667     % of that
 The run will finish approximately on (in local time): Wed Apr 07, 2021 14:25
 
 Time step #         2650
 Time:   1.2450000E-02  seconds
 Elapsed time in seconds =    140.081336565316     
 Elapsed time in hh:mm:ss =      0 h 02 m 20 s
 Mean elapsed time per time step in seconds =   5.2860882E-02
 Max norm displacement vector U in all slices (m) =    33701.03    
 Time steps done =         2650  out of        30000
 Time steps remaining =        27350
 Estimated remaining time in seconds =    1445.745    
 Estimated remaining time in hh:mm:ss =      0 h 24 m 05 s
 Estimated total run time in seconds =    1585.826    
 Estimated total run time in hh:mm:ss =      0 h 26 m 25 s
 We have done    8.833333     % of that
 The run will finish approximately on (in local time): Wed Apr 07, 2021 14:25
 
 Time step #         2700
 Time:   1.4950000E-02  seconds
 Elapsed time in seconds =    142.678168265149     
 Elapsed time in hh:mm:ss =      0 h 02 m 22 s
 Mean elapsed time per time step in seconds =   5.2843764E-02
 Max norm displacement vector U in all slices (m) =    25596.26    
 Time steps done =         2700  out of        30000
 Time steps remaining =        27300
 Estimated remaining time in seconds =    1442.635    
 Estimated remaining time in hh:mm:ss =      0 h 24 m 02 s
 Estimated total run time in seconds =    1585.313    
 Estimated total run time in hh:mm:ss =      0 h 26 m 25 s
 We have done    9.000000     % of that
 The run will finish approximately on (in local time): Wed Apr 07, 2021 14:25
 
 Time step #         2750
 Time:   1.7449999E-02  seconds
 Elapsed time in seconds =    145.275239274837     
 Elapsed time in hh:mm:ss =      0 h 02 m 25 s
 Mean elapsed time per time step in seconds =   5.2827358E-02
 Max norm displacement vector U in all slices (m) =    17148.48    
 Time steps done =         2750  out of        30000
 Time steps remaining =        27250
 Estimated remaining time in seconds =    1439.546    
 Estimated remaining time in hh:mm:ss =      0 h 23 m 59 s
 Estimated total run time in seconds =    1584.821    
 Estimated total run time in hh:mm:ss =      0 h 26 m 24 s
 We have done    9.166667     % of that
 The run will finish approximately on (in local time): Wed Apr 07, 2021 14:25
 
 Time step #         2800
 Time:   1.9950001E-02  seconds
 Elapsed time in seconds =    147.874711466953     
 Elapsed time in hh:mm:ss =      0 h 02 m 27 s
 Mean elapsed time per time step in seconds =   5.2812397E-02
 Max norm displacement vector U in all slices (m) =    8781.783    
 Time steps done =         2800  out of        30000
 Time steps remaining =        27200
 Estimated remaining time in seconds =    1436.497    
 Estimated remaining time in hh:mm:ss =      0 h 23 m 56 s
 Estimated total run time in seconds =    1584.372    
 Estimated total run time in hh:mm:ss =      0 h 26 m 24 s
 We have done    9.333333     % of that
 The run will finish approximately on (in local time): Wed Apr 07, 2021 14:25
 
 Time step #         2850
 Time:   2.2450000E-02  seconds
 Elapsed time in seconds =    150.480910489336     
 Elapsed time in hh:mm:ss =      0 h 02 m 30 s
 Mean elapsed time per time step in seconds =   5.2800320E-02
 Max norm displacement vector U in all slices (m) =    882.0609    
 Time steps done =         2850  out of        30000
 Time steps remaining =        27150
 Estimated remaining time in seconds =    1433.529    
 Estimated remaining time in hh:mm:ss =      0 h 23 m 53 s
 Estimated total run time in seconds =    1584.010    
 Estimated total run time in hh:mm:ss =      0 h 26 m 24 s
 We have done    9.500000     % of that
 The run will finish approximately on (in local time): Wed Apr 07, 2021 14:25
 
 Time step #         2900
 Time:   2.4950000E-02  seconds
 Elapsed time in seconds =    153.078646101989     
 Elapsed time in hh:mm:ss =      0 h 02 m 33 s
 Mean elapsed time per time step in seconds =   5.2785739E-02
 Max norm displacement vector U in all slices (m) =    6232.069    
 Time steps done =         2900  out of        30000
 Time steps remaining =        27100
 Estimated remaining time in seconds =    1430.494    
 Estimated remaining time in hh:mm:ss =      0 h 23 m 50 s
 Estimated total run time in seconds =    1583.572    
 Estimated total run time in hh:mm:ss =      0 h 26 m 23 s
 We have done    9.666667     % of that
 The run will finish approximately on (in local time): Wed Apr 07, 2021 14:25
 
 Time step #         2950
 Time:   2.7450001E-02  seconds
 Elapsed time in seconds =    155.675838558935     
 Elapsed time in hh:mm:ss =      0 h 02 m 35 s
 Mean elapsed time per time step in seconds =   5.2771471E-02
 Max norm displacement vector U in all slices (m) =    12313.29    
 Time steps done =         2950  out of        30000
 Time steps remaining =        27050
 Estimated remaining time in seconds =    1427.468    
 Estimated remaining time in hh:mm:ss =      0 h 23 m 47 s
 Estimated total run time in seconds =    1583.144    
 Estimated total run time in hh:mm:ss =      0 h 26 m 23 s
 We have done    9.833333     % of that
 The run will finish approximately on (in local time): Wed Apr 07, 2021 14:25
 
 Time step #         3000
 Time:   2.9950000E-02  seconds
 Elapsed time in seconds =    158.273250732571     
 Elapsed time in hh:mm:ss =      0 h 02 m 38 s
 Mean elapsed time per time step in seconds =   5.2757751E-02
 Max norm displacement vector U in all slices (m) =    17207.09    
 Time steps done =         3000  out of        30000
 Time steps remaining =        27000
 Estimated remaining time in seconds =    1424.459    
 Estimated remaining time in hh:mm:ss =      0 h 23 m 44 s
 Estimated total run time in seconds =    1582.733    
 Estimated total run time in hh:mm:ss =      0 h 26 m 22 s
 We have done    10.00000     % of that
 The run will finish approximately on (in local time): Wed Apr 07, 2021 14:25
 
 Time step #         3050
 Time:   3.2450002E-02  seconds
 Elapsed time in seconds =    160.870308136567     
 Elapsed time in hh:mm:ss =      0 h 02 m 40 s
 Mean elapsed time per time step in seconds =   5.2744363E-02
 Max norm displacement vector U in all slices (m) =    20844.83    
 Time steps done =         3050  out of        30000
 Time steps remaining =        26950
 Estimated remaining time in seconds =    1421.461    
 Estimated remaining time in hh:mm:ss =      0 h 23 m 41 s
 Estimated total run time in seconds =    1582.331    
 Estimated total run time in hh:mm:ss =      0 h 26 m 22 s
 We have done    10.16667     % of that
 The run will finish approximately on (in local time): Wed Apr 07, 2021 14:25
 
 Time step #         3100
 Time:   3.4949999E-02  seconds
 Elapsed time in seconds =    163.467379637994     
 Elapsed time in hh:mm:ss =      0 h 02 m 43 s
 Mean elapsed time per time step in seconds =   5.2731413E-02
 Max norm displacement vector U in all slices (m) =    23238.62    
 Time steps done =         3100  out of        30000
 Time steps remaining =        26900
 Estimated remaining time in seconds =    1418.475    
 Estimated remaining time in hh:mm:ss =      0 h 23 m 38 s
 Estimated total run time in seconds =    1581.942    
 Estimated total run time in hh:mm:ss =      0 h 26 m 21 s
 We have done    10.33333     % of that
 The run will finish approximately on (in local time): Wed Apr 07, 2021 14:26
 
 Time step #         3150
 Time:   3.7450001E-02  seconds
 Elapsed time in seconds =    166.065374176018     
 Elapsed time in hh:mm:ss =      0 h 02 m 46 s
 Mean elapsed time per time step in seconds =   5.2719165E-02
 Max norm displacement vector U in all slices (m) =    24469.17    
 Time steps done =         3150  out of        30000
 Time steps remaining =        26850
 Estimated remaining time in seconds =    1415.510    
 Estimated remaining time in hh:mm:ss =      0 h 23 m 35 s
 Estimated total run time in seconds =    1581.575    
 Estimated total run time in hh:mm:ss =      0 h 26 m 21 s
 We have done    10.50000     % of that
 The run will finish approximately on (in local time): Wed Apr 07, 2021 14:26
 
 Time step #         3200
 Time:   3.9949998E-02  seconds
 Elapsed time in seconds =    168.662150029093     
 Elapsed time in hh:mm:ss =      0 h 02 m 48 s
 Mean elapsed time per time step in seconds =   5.2706923E-02
 Max norm displacement vector U in all slices (m) =    24669.84    
 Time steps done =         3200  out of        30000
 Time steps remaining =        26800
 Estimated remaining time in seconds =    1412.546    
 Estimated remaining time in hh:mm:ss =      0 h 23 m 32 s
 Estimated total run time in seconds =    1581.208    
 Estimated total run time in hh:mm:ss =      0 h 26 m 21 s
 We have done    10.66667     % of that
 The run will finish approximately on (in local time): Wed Apr 07, 2021 14:26
 
 Time step #         3250
 Time:   4.2450000E-02  seconds
 Elapsed time in seconds =    171.259665153921     
 Elapsed time in hh:mm:ss =      0 h 02 m 51 s
 Mean elapsed time per time step in seconds =   5.2695282E-02
 Max norm displacement vector U in all slices (m) =    24009.27    
 Time steps done =         3250  out of        30000
 Time steps remaining =        26750
 Estimated remaining time in seconds =    1409.599    
 Estimated remaining time in hh:mm:ss =      0 h 23 m 29 s
 Estimated total run time in seconds =    1580.858    
 Estimated total run time in hh:mm:ss =      0 h 26 m 20 s
 We have done    10.83333     % of that
 The run will finish approximately on (in local time): Wed Apr 07, 2021 14:25
 
 Time step #         3300
 Time:   4.4950001E-02  seconds
 Elapsed time in seconds =    173.858790614642     
 Elapsed time in hh:mm:ss =      0 h 02 m 53 s
 Mean elapsed time per time step in seconds =   5.2684482E-02
 Max norm displacement vector U in all slices (m) =    22673.98    
 Time steps done =         3300  out of        30000
 Time steps remaining =        26700
 Estimated remaining time in seconds =    1406.676    
 Estimated remaining time in hh:mm:ss =      0 h 23 m 26 s
 Estimated total run time in seconds =    1580.534    
 Estimated total run time in hh:mm:ss =      0 h 26 m 20 s
 We have done    11.00000     % of that
 The run will finish approximately on (in local time): Wed Apr 07, 2021 14:25
 
 Time step #         3350
 Time:   4.7449999E-02  seconds
 Elapsed time in seconds =    176.589783177711     
 Elapsed time in hh:mm:ss =      0 h 02 m 56 s
 Mean elapsed time per time step in seconds =   5.2713368E-02
 Max norm displacement vector U in all slices (m) =    20852.81    
 Time steps done =         3350  out of        30000
 Time steps remaining =        26650
 Estimated remaining time in seconds =    1404.811    
 Estimated remaining time in hh:mm:ss =      0 h 23 m 24 s
 Estimated total run time in seconds =    1581.401    
 Estimated total run time in hh:mm:ss =      0 h 26 m 21 s
 We have done    11.16667     % of that
 The run will finish approximately on (in local time): Wed Apr 07, 2021 14:25
 
 Time step #         3400
 Time:   4.9950000E-02  seconds
 Elapsed time in seconds =    179.187028060667     
 Elapsed time in hh:mm:ss =      0 h 02 m 59 s
 Mean elapsed time per time step in seconds =   5.2702066E-02
 Max norm displacement vector U in all slices (m) =    18723.97    
 Time steps done =         3400  out of        30000
 Time steps remaining =        26600
 Estimated remaining time in seconds =    1401.875    
 Estimated remaining time in hh:mm:ss =      0 h 23 m 21 s
 Estimated total run time in seconds =    1581.062    
 Estimated total run time in hh:mm:ss =      0 h 26 m 21 s
 We have done    11.33333     % of that
 The run will finish approximately on (in local time): Wed Apr 07, 2021 14:25
 
 Time step #         3450
 Time:   5.2450001E-02  seconds
 Elapsed time in seconds =    181.784037058242     
 Elapsed time in hh:mm:ss =      0 h 03 m 01 s
 Mean elapsed time per time step in seconds =   5.2691024E-02
 Max norm displacement vector U in all slices (m) =    16445.58    
 Time steps done =         3450  out of        30000
 Time steps remaining =        26550
 Estimated remaining time in seconds =    1398.947    
 Estimated remaining time in hh:mm:ss =      0 h 23 m 18 s
 Estimated total run time in seconds =    1580.731    
 Estimated total run time in hh:mm:ss =      0 h 26 m 20 s
 We have done    11.50000     % of that
 The run will finish approximately on (in local time): Wed Apr 07, 2021 14:25
 
 Time step #         3500
 Time:   5.4949999E-02  seconds
 Elapsed time in seconds =    184.381269589998     
 Elapsed time in hh:mm:ss =      0 h 03 m 04 s
 Mean elapsed time per time step in seconds =   5.2680362E-02
 Max norm displacement vector U in all slices (m) =    14149.56    
 Time steps done =         3500  out of        30000
 Time steps remaining =        26500
 Estimated remaining time in seconds =    1396.030    
 Estimated remaining time in hh:mm:ss =      0 h 23 m 16 s
 Estimated total run time in seconds =    1580.411    
 Estimated total run time in hh:mm:ss =      0 h 26 m 20 s
 We have done    11.66667     % of that
 The run will finish approximately on (in local time): Wed Apr 07, 2021 14:25
 
 Time step #         3550
 Time:   5.7450000E-02  seconds
 Elapsed time in seconds =    186.978599862196     
 Elapsed time in hh:mm:ss =      0 h 03 m 06 s
 Mean elapsed time per time step in seconds =   5.2670028E-02
 Max norm displacement vector U in all slices (m) =    11938.92    
 Time steps done =         3550  out of        30000
 Time steps remaining =        26450
 Estimated remaining time in seconds =    1393.122    
 Estimated remaining time in hh:mm:ss =      0 h 23 m 13 s
 Estimated total run time in seconds =    1580.101    
 Estimated total run time in hh:mm:ss =      0 h 26 m 20 s
 We have done    11.83333     % of that
 The run will finish approximately on (in local time): Wed Apr 07, 2021 14:25
 
 Time step #         3600
 Time:   5.9950002E-02  seconds
 Elapsed time in seconds =    189.575603283942     
 Elapsed time in hh:mm:ss =      0 h 03 m 09 s
 Mean elapsed time per time step in seconds =   5.2659892E-02
 Max norm displacement vector U in all slices (m) =    9887.808    
 Time steps done =         3600  out of        30000
 Time steps remaining =        26400
 Estimated remaining time in seconds =    1390.221    
 Estimated remaining time in hh:mm:ss =      0 h 23 m 10 s
 Estimated total run time in seconds =    1579.797    
 Estimated total run time in hh:mm:ss =      0 h 26 m 19 s
 We have done    12.00000     % of that
 The run will finish approximately on (in local time): Wed Apr 07, 2021 14:25
 
 Time step #         3650
 Time:   6.2449999E-02  seconds
 Elapsed time in seconds =    192.512571465224     
 Elapsed time in hh:mm:ss =      0 h 03 m 12 s
 Mean elapsed time per time step in seconds =   5.2743170E-02
 Max norm displacement vector U in all slices (m) =    8043.660    
 Time steps done =         3650  out of        30000
 Time steps remaining =        26350
 Estimated remaining time in seconds =    1389.783    
 Estimated remaining time in hh:mm:ss =      0 h 23 m 09 s
 Estimated total run time in seconds =    1582.295    
 Estimated total run time in hh:mm:ss =      0 h 26 m 22 s
 We have done    12.16667     % of that
 The run will finish approximately on (in local time): Wed Apr 07, 2021 14:25
 
 Time step #         3700
 Time:   6.4949997E-02  seconds
 Elapsed time in seconds =    195.109776039608     
 Elapsed time in hh:mm:ss =      0 h 03 m 15 s
 Mean elapsed time per time step in seconds =   5.2732371E-02
 Max norm displacement vector U in all slices (m) =    6430.892    
 Time steps done =         3700  out of        30000
 Time steps remaining =        26300
 Estimated remaining time in seconds =    1386.861    
 Estimated remaining time in hh:mm:ss =      0 h 23 m 06 s
 Estimated total run time in seconds =    1581.971    
 Estimated total run time in hh:mm:ss =      0 h 26 m 21 s
 We have done    12.33333     % of that
 The run will finish approximately on (in local time): Wed Apr 07, 2021 14:25
 
 Time step #         3750
 Time:   6.7450002E-02  seconds
 Elapsed time in seconds =    197.706966464408     
 Elapsed time in hh:mm:ss =      0 h 03 m 17 s
 Mean elapsed time per time step in seconds =   5.2721858E-02
 Max norm displacement vector U in all slices (m) =    5055.271    
 Time steps done =         3750  out of        30000
 Time steps remaining =        26250
 Estimated remaining time in seconds =    1383.949    
 Estimated remaining time in hh:mm:ss =      0 h 23 m 03 s
 Estimated total run time in seconds =    1581.656    
 Estimated total run time in hh:mm:ss =      0 h 26 m 21 s
 We have done    12.50000     % of that
 The run will finish approximately on (in local time): Wed Apr 07, 2021 14:25
 
 Time step #         3800
 Time:   6.9949999E-02  seconds
 Elapsed time in seconds =    200.304264409468     
 Elapsed time in hh:mm:ss =      0 h 03 m 20 s
 Mean elapsed time per time step in seconds =   5.2711647E-02
 Max norm displacement vector U in all slices (m) =    3908.582    
 Time steps done =         3800  out of        30000
 Time steps remaining =        26200
 Estimated remaining time in seconds =    1381.045    
 Estimated remaining time in hh:mm:ss =      0 h 23 m 01 s
 Estimated total run time in seconds =    1581.349    
 Estimated total run time in hh:mm:ss =      0 h 26 m 21 s
 We have done    12.66667     % of that
 The run will finish approximately on (in local time): Wed Apr 07, 2021 14:25
 
 Time step #         3850
 Time:   7.2449997E-02  seconds
 Elapsed time in seconds =    202.901441679336     
 Elapsed time in hh:mm:ss =      0 h 03 m 22 s
 Mean elapsed time per time step in seconds =   5.2701674E-02
 Max norm displacement vector U in all slices (m) =    2972.961    
 Time steps done =         3850  out of        30000
 Time steps remaining =        26150
 Estimated remaining time in seconds =    1378.149    
 Estimated remaining time in hh:mm:ss =      0 h 22 m 58 s
 Estimated total run time in seconds =    1581.050    
 Estimated total run time in hh:mm:ss =      0 h 26 m 21 s
 We have done    12.83333     % of that
 The run will finish approximately on (in local time): Wed Apr 07, 2021 14:25
 
 Time step #         3900
 Time:   7.4950002E-02  seconds
 Elapsed time in seconds =    205.498683104292     
 Elapsed time in hh:mm:ss =      0 h 03 m 25 s
 Mean elapsed time per time step in seconds =   5.2691970E-02
 Max norm displacement vector U in all slices (m) =    2224.836    
 Time steps done =         3900  out of        30000
 Time steps remaining =        26100
 Estimated remaining time in seconds =    1375.260    
 Estimated remaining time in hh:mm:ss =      0 h 22 m 55 s
 Estimated total run time in seconds =    1580.759    
 Estimated total run time in hh:mm:ss =      0 h 26 m 20 s
 We have done    13.00000     % of that
 The run will finish approximately on (in local time): Wed Apr 07, 2021 14:25
 
 Time step #         3950
 Time:   7.7450000E-02  seconds
 Elapsed time in seconds =    208.095845527947     
 Elapsed time in hh:mm:ss =      0 h 03 m 28 s
 Mean elapsed time per time step in seconds =   5.2682493E-02
 Max norm displacement vector U in all slices (m) =    1637.984    
 Time steps done =         3950  out of        30000
 Time steps remaining =        26050
 Estimated remaining time in seconds =    1372.379    
 Estimated remaining time in hh:mm:ss =      0 h 22 m 52 s
 Estimated total run time in seconds =    1580.475    
 Estimated total run time in hh:mm:ss =      0 h 26 m 20 s
 We have done    13.16667     % of that
 The run will finish approximately on (in local time): Wed Apr 07, 2021 14:25
 
 Time step #         4000
 Time:   7.9949997E-02  seconds
 Elapsed time in seconds =    210.692848684266     
 Elapsed time in hh:mm:ss =      0 h 03 m 30 s
 Mean elapsed time per time step in seconds =   5.2673213E-02
 Max norm displacement vector U in all slices (m) =    1186.040    
 Time steps done =         4000  out of        30000
 Time steps remaining =        26000
 Estimated remaining time in seconds =    1369.504    
 Estimated remaining time in hh:mm:ss =      0 h 22 m 49 s
 Estimated total run time in seconds =    1580.196    
 Estimated total run time in hh:mm:ss =      0 h 26 m 20 s
 We have done    13.33333     % of that
 The run will finish approximately on (in local time): Wed Apr 07, 2021 14:25
 
 Time step #         4050
 Time:   8.2450002E-02  seconds
 Elapsed time in seconds =    213.290499275550     
 Elapsed time in hh:mm:ss =      0 h 03 m 33 s
 Mean elapsed time per time step in seconds =   5.2664321E-02
 Max norm displacement vector U in all slices (m) =    1153.704    
 Time steps done =         4050  out of        30000
 Time steps remaining =        25950
 Estimated remaining time in seconds =    1366.639    
 Estimated remaining time in hh:mm:ss =      0 h 22 m 46 s
 Estimated total run time in seconds =    1579.930    
 Estimated total run time in hh:mm:ss =      0 h 26 m 19 s
 We have done    13.50000     % of that
 The run will finish approximately on (in local time): Wed Apr 07, 2021 14:25
 
 Time step #         4100
 Time:   8.4950000E-02  seconds
 Elapsed time in seconds =    215.887644429691     
 Elapsed time in hh:mm:ss =      0 h 03 m 35 s
 Mean elapsed time per time step in seconds =   5.2655522E-02
 Max norm displacement vector U in all slices (m) =    1151.114    
 Time steps done =         4100  out of        30000
 Time steps remaining =        25900
 Estimated remaining time in seconds =    1363.778    
 Estimated remaining time in hh:mm:ss =      0 h 22 m 43 s
 Estimated total run time in seconds =    1579.666    
 Estimated total run time in hh:mm:ss =      0 h 26 m 19 s
 We have done    13.66667     % of that
 The run will finish approximately on (in local time): Wed Apr 07, 2021 14:25
 
 Time step #         4150
 Time:   8.7449998E-02  seconds
 Elapsed time in seconds =    218.485187392682     
 Elapsed time in hh:mm:ss =      0 h 03 m 38 s
 Mean elapsed time per time step in seconds =   5.2647032E-02
 Max norm displacement vector U in all slices (m) =    1120.573    
 Time steps done =         4150  out of        30000
 Time steps remaining =        25850
 Estimated remaining time in seconds =    1360.926    
 Estimated remaining time in hh:mm:ss =      0 h 22 m 40 s
 Estimated total run time in seconds =    1579.411    
 Estimated total run time in hh:mm:ss =      0 h 26 m 19 s
 We have done    13.83333     % of that
 The run will finish approximately on (in local time): Wed Apr 07, 2021 14:25
 
 Time step #         4200
 Time:   8.9950003E-02  seconds
 Elapsed time in seconds =    221.082176471129     
 Elapsed time in hh:mm:ss =      0 h 03 m 41 s
 Mean elapsed time per time step in seconds =   5.2638613E-02
 Max norm displacement vector U in all slices (m) =    1078.045    
 Time steps done =         4200  out of        30000
 Time steps remaining =        25800
 Estimated remaining time in seconds =    1358.076    
 Estimated remaining time in hh:mm:ss =      0 h 22 m 38 s
 Estimated total run time in seconds =    1579.158    
 Estimated total run time in hh:mm:ss =      0 h 26 m 19 s
 We have done    14.00000     % of that
 The run will finish approximately on (in local time): Wed Apr 07, 2021 14:25
 
 Time step #         4250
 Time:   9.2450000E-02  seconds
 Elapsed time in seconds =    223.679065546021     
 Elapsed time in hh:mm:ss =      0 h 03 m 43 s
 Mean elapsed time per time step in seconds =   5.2630369E-02
 Max norm displacement vector U in all slices (m) =    1050.240    
 Time steps done =         4250  out of        30000
 Time steps remaining =        25750
 Estimated remaining time in seconds =    1355.232    
 Estimated remaining time in hh:mm:ss =      0 h 22 m 35 s
 Estimated total run time in seconds =    1578.911    
 Estimated total run time in hh:mm:ss =      0 h 26 m 18 s
 We have done    14.16667     % of that
 The run will finish approximately on (in local time): Wed Apr 07, 2021 14:26
 
 Time step #         4300
 Time:   9.4949998E-02  seconds
 Elapsed time in seconds =    226.276294457726     
 Elapsed time in hh:mm:ss =      0 h 03 m 46 s
 Mean elapsed time per time step in seconds =   5.2622393E-02
 Max norm displacement vector U in all slices (m) =    1016.957    
 Time steps done =         4300  out of        30000
 Time steps remaining =        25700
 Estimated remaining time in seconds =    1352.396    
 Estimated remaining time in hh:mm:ss =      0 h 22 m 32 s
 Estimated total run time in seconds =    1578.672    
 Estimated total run time in hh:mm:ss =      0 h 26 m 18 s
 We have done    14.33333     % of that
 The run will finish approximately on (in local time): Wed Apr 07, 2021 14:26
 
 Time step #         4350
 Time:   9.7450003E-02  seconds
 Elapsed time in seconds =    228.873637331650     
 Elapsed time in hh:mm:ss =      0 h 03 m 48 s
 Mean elapsed time per time step in seconds =   5.2614629E-02
 Max norm displacement vector U in all slices (m) =    1130.511    
 Time steps done =         4350  out of        30000
 Time steps remaining =        25650
 Estimated remaining time in seconds =    1349.565    
 Estimated remaining time in hh:mm:ss =      0 h 22 m 29 s
 Estimated total run time in seconds =    1578.439    
 Estimated total run time in hh:mm:ss =      0 h 26 m 18 s
 We have done    14.50000     % of that
 The run will finish approximately on (in local time): Wed Apr 07, 2021 14:25
 
 Time step #         4400
 Time:   9.9950001E-02  seconds
 Elapsed time in seconds =    231.470358674414     
 Elapsed time in hh:mm:ss =      0 h 03 m 51 s
 Mean elapsed time per time step in seconds =   5.2606899E-02
 Max norm displacement vector U in all slices (m) =    1259.937    
 Time steps done =         4400  out of        30000
 Time steps remaining =        25600
 Estimated remaining time in seconds =    1346.737    
 Estimated remaining time in hh:mm:ss =      0 h 22 m 26 s
 Estimated total run time in seconds =    1578.207    
 Estimated total run time in hh:mm:ss =      0 h 26 m 18 s
 We have done    14.66667     % of that
 The run will finish approximately on (in local time): Wed Apr 07, 2021 14:25
 
 Time step #         4450
 Time:   0.1024500      seconds
 Elapsed time in seconds =    234.067921723239     
 Elapsed time in hh:mm:ss =      0 h 03 m 54 s
 Mean elapsed time per time step in seconds =   5.2599534E-02
 Max norm displacement vector U in all slices (m) =    1342.009    
 Time steps done =         4450  out of        30000
 Time steps remaining =        25550
 Estimated remaining time in seconds =    1343.918    
 Estimated remaining time in hh:mm:ss =      0 h 22 m 23 s
 Estimated total run time in seconds =    1577.986    
 Estimated total run time in hh:mm:ss =      0 h 26 m 17 s
 We have done    14.83333     % of that
 The run will finish approximately on (in local time): Wed Apr 07, 2021 14:25
 
 Time step #         4500
 Time:   0.1049500      seconds
 Elapsed time in seconds =    236.664659579284     
 Elapsed time in hh:mm:ss =      0 h 03 m 56 s
 Mean elapsed time per time step in seconds =   5.2592147E-02
 Max norm displacement vector U in all slices (m) =    1369.170    
 Time steps done =         4500  out of        30000
 Time steps remaining =        25500
 Estimated remaining time in seconds =    1341.100    
 Estimated remaining time in hh:mm:ss =      0 h 22 m 21 s
 Estimated total run time in seconds =    1577.764    
 Estimated total run time in hh:mm:ss =      0 h 26 m 17 s
 We have done    15.00000     % of that
 The run will finish approximately on (in local time): Wed Apr 07, 2021 14:25
 
 Time step #         4550
 Time:   0.1074500      seconds
 Elapsed time in seconds =    239.261343107559     
 Elapsed time in hh:mm:ss =      0 h 03 m 59 s
 Mean elapsed time per time step in seconds =   5.2584909E-02
 Max norm displacement vector U in all slices (m) =    1434.193    
 Time steps done =         4550  out of        30000
 Time steps remaining =        25450
 Estimated remaining time in seconds =    1338.286    
 Estimated remaining time in hh:mm:ss =      0 h 22 m 18 s
 Estimated total run time in seconds =    1577.547    
 Estimated total run time in hh:mm:ss =      0 h 26 m 17 s
 We have done    15.16667     % of that
 The run will finish approximately on (in local time): Wed Apr 07, 2021 14:25
 
 Time step #         4600
 Time:   0.1099500      seconds
 Elapsed time in seconds =    241.857999941334     
 Elapsed time in hh:mm:ss =      0 h 04 m 01 s
 Mean elapsed time per time step in seconds =   5.2577827E-02
 Max norm displacement vector U in all slices (m) =    1565.376    
 Time steps done =         4600  out of        30000
 Time steps remaining =        25400
 Estimated remaining time in seconds =    1335.477    
 Estimated remaining time in hh:mm:ss =      0 h 22 m 15 s
 Estimated total run time in seconds =    1577.335    
 Estimated total run time in hh:mm:ss =      0 h 26 m 17 s
 We have done    15.33333     % of that
 The run will finish approximately on (in local time): Wed Apr 07, 2021 14:25
 
 Time step #         4650
 Time:   0.1124500      seconds
 Elapsed time in seconds =    244.454589954577     
 Elapsed time in hh:mm:ss =      0 h 04 m 04 s
 Mean elapsed time per time step in seconds =   5.2570879E-02
 Max norm displacement vector U in all slices (m) =    1702.891    
 Time steps done =         4650  out of        30000
 Time steps remaining =        25350
 Estimated remaining time in seconds =    1332.672    
 Estimated remaining time in hh:mm:ss =      0 h 22 m 12 s
 Estimated total run time in seconds =    1577.126    
 Estimated total run time in hh:mm:ss =      0 h 26 m 17 s
 We have done    15.50000     % of that
 The run will finish approximately on (in local time): Wed Apr 07, 2021 14:25
 
 Time step #         4700
 Time:   0.1149500      seconds
 Elapsed time in seconds =    247.051398968324     
 Elapsed time in hh:mm:ss =      0 h 04 m 07 s
 Mean elapsed time per time step in seconds =   5.2564129E-02
 Max norm displacement vector U in all slices (m) =    1826.472    
 Time steps done =         4700  out of        30000
 Time steps remaining =        25300
 Estimated remaining time in seconds =    1329.872    
 Estimated remaining time in hh:mm:ss =      0 h 22 m 09 s
 Estimated total run time in seconds =    1576.924    
 Estimated total run time in hh:mm:ss =      0 h 26 m 16 s
 We have done    15.66667     % of that
 The run will finish approximately on (in local time): Wed Apr 07, 2021 14:25
 
 Time step #         4750
 Time:   0.1174500      seconds
 Elapsed time in seconds =    249.648539918475     
 Elapsed time in hh:mm:ss =      0 h 04 m 09 s
 Mean elapsed time per time step in seconds =   5.2557588E-02
 Max norm displacement vector U in all slices (m) =    1919.364    
 Time steps done =         4750  out of        30000
 Time steps remaining =        25250
 Estimated remaining time in seconds =    1327.079    
 Estimated remaining time in hh:mm:ss =      0 h 22 m 07 s
 Estimated total run time in seconds =    1576.728    
 Estimated total run time in hh:mm:ss =      0 h 26 m 16 s
 We have done    15.83333     % of that
 The run will finish approximately on (in local time): Wed Apr 07, 2021 14:25
 
 Time step #         4800
 Time:   0.1199500      seconds
 Elapsed time in seconds =    252.245805853978     
 Elapsed time in hh:mm:ss =      0 h 04 m 12 s
 Mean elapsed time per time step in seconds =   5.2551210E-02
 Max norm displacement vector U in all slices (m) =    1972.863    
 Time steps done =         4800  out of        30000
 Time steps remaining =        25200
 Estimated remaining time in seconds =    1324.291    
 Estimated remaining time in hh:mm:ss =      0 h 22 m 04 s
 Estimated total run time in seconds =    1576.536    
 Estimated total run time in hh:mm:ss =      0 h 26 m 16 s
 We have done    16.00000     % of that
 The run will finish approximately on (in local time): Wed Apr 07, 2021 14:25
 
 Time step #         4850
 Time:   0.1224500      seconds
 Elapsed time in seconds =    254.848904151469     
 Elapsed time in hh:mm:ss =      0 h 04 m 14 s
 Mean elapsed time per time step in seconds =   5.2546166E-02
 Max norm displacement vector U in all slices (m) =    1977.087    
 Time steps done =         4850  out of        30000
 Time steps remaining =        25150
 Estimated remaining time in seconds =    1321.536    
 Estimated remaining time in hh:mm:ss =      0 h 22 m 01 s
 Estimated total run time in seconds =    1576.385    
 Estimated total run time in hh:mm:ss =      0 h 26 m 16 s
 We have done    16.16667     % of that
 The run will finish approximately on (in local time): Wed Apr 07, 2021 14:25
 
 Time step #         4900
 Time:   0.1249500      seconds
 Elapsed time in seconds =    257.445719379932     
 Elapsed time in hh:mm:ss =      0 h 04 m 17 s
 Mean elapsed time per time step in seconds =   5.2539941E-02
 Max norm displacement vector U in all slices (m) =    1975.238    
 Time steps done =         4900  out of        30000
 Time steps remaining =        25100
 Estimated remaining time in seconds =    1318.753    
[...]
 Estimated total run time in hh:mm:ss =      0 h 26 m 05 s
 We have done    95.50000     % of that
 The run will finish approximately on (in local time): Wed Apr 07, 2021 14:25
 
 Time step #        28700
 Time:    1.314950      seconds
 Elapsed time in seconds =    1497.34116339963     
 Elapsed time in hh:mm:ss =      0 h 24 m 57 s
 Mean elapsed time per time step in seconds =   5.2172165E-02
 Max norm displacement vector U in all slices (m) =    947.1074    
 Time steps done =        28700  out of        30000
 Time steps remaining =         1300
 Estimated remaining time in seconds =    67.82381    
 Estimated remaining time in hh:mm:ss =      0 h 01 m 07 s
 Estimated total run time in seconds =    1565.165    
 Estimated total run time in hh:mm:ss =      0 h 26 m 05 s
 We have done    95.66666     % of that
 The run will finish approximately on (in local time): Wed Apr 07, 2021 14:25
 
 Time step #        28750
 Time:    1.317450      seconds
 Elapsed time in seconds =    1499.93907865696     
 Elapsed time in hh:mm:ss =      0 h 24 m 59 s
 Mean elapsed time per time step in seconds =   5.2171793E-02
 Max norm displacement vector U in all slices (m) =    963.0161    
 Time steps done =        28750  out of        30000
 Time steps remaining =         1250
 Estimated remaining time in seconds =    65.21474    
 Estimated remaining time in hh:mm:ss =      0 h 01 m 05 s
 Estimated total run time in seconds =    1565.154    
 Estimated total run time in hh:mm:ss =      0 h 26 m 05 s
 We have done    95.83334     % of that
 The run will finish approximately on (in local time): Wed Apr 07, 2021 14:25
 
 Time step #        28800
 Time:    1.319950      seconds
 Elapsed time in seconds =    1502.53698062524     
 Elapsed time in hh:mm:ss =      0 h 25 m 02 s
 Mean elapsed time per time step in seconds =   5.2171424E-02
 Max norm displacement vector U in all slices (m) =    978.6993    
 Time steps done =        28800  out of        30000
 Time steps remaining =         1200
 Estimated remaining time in seconds =    62.60571    
 Estimated remaining time in hh:mm:ss =      0 h 01 m 02 s
 Estimated total run time in seconds =    1565.143    
 Estimated total run time in hh:mm:ss =      0 h 26 m 05 s
 We have done    96.00000     % of that
 The run will finish approximately on (in local time): Wed Apr 07, 2021 14:25
 
 Time step #        28850
 Time:    1.322450      seconds
 Elapsed time in seconds =    1505.13484677020     
 Elapsed time in hh:mm:ss =      0 h 25 m 05 s
 Mean elapsed time per time step in seconds =   5.2171052E-02
 Max norm displacement vector U in all slices (m) =    996.2178    
 Time steps done =        28850  out of        30000
 Time steps remaining =         1150
 Estimated remaining time in seconds =    59.99671    
 Estimated remaining time in hh:mm:ss =      0 h 00 m 59 s
 Estimated total run time in seconds =    1565.132    
 Estimated total run time in hh:mm:ss =      0 h 26 m 05 s
 We have done    96.16666     % of that
 The run will finish approximately on (in local time): Wed Apr 07, 2021 14:25
 
 Time step #        28900
 Time:    1.324950      seconds
 Elapsed time in seconds =    1507.73274355661     
 Elapsed time in hh:mm:ss =      0 h 25 m 07 s
 Mean elapsed time per time step in seconds =   5.2170683E-02
 Max norm displacement vector U in all slices (m) =    1015.941    
 Time steps done =        28900  out of        30000
 Time steps remaining =         1100
 Estimated remaining time in seconds =    57.38775    
 Estimated remaining time in hh:mm:ss =      0 h 00 m 57 s
 Estimated total run time in seconds =    1565.120    
 Estimated total run time in hh:mm:ss =      0 h 26 m 05 s
 We have done    96.33334     % of that
 The run will finish approximately on (in local time): Wed Apr 07, 2021 14:25
 
 Time step #        28950
 Time:    1.327450      seconds
 Elapsed time in seconds =    1510.33119051158     
 Elapsed time in hh:mm:ss =      0 h 25 m 10 s
 Mean elapsed time per time step in seconds =   5.2170336E-02
 Max norm displacement vector U in all slices (m) =    1042.294    
 Time steps done =        28950  out of        30000
 Time steps remaining =         1050
 Estimated remaining time in seconds =    54.77885    
 Estimated remaining time in hh:mm:ss =      0 h 00 m 54 s
 Estimated total run time in seconds =    1565.110    
 Estimated total run time in hh:mm:ss =      0 h 26 m 05 s
 We have done    96.50000     % of that
 The run will finish approximately on (in local time): Wed Apr 07, 2021 14:25
 
 Time step #        29000
 Time:    1.329950      seconds
 Elapsed time in seconds =    1512.92889485136     
 Elapsed time in hh:mm:ss =      0 h 25 m 12 s
 Mean elapsed time per time step in seconds =   5.2169964E-02
 Max norm displacement vector U in all slices (m) =    1071.514    
 Time steps done =        29000  out of        30000
 Time steps remaining =         1000
 Estimated remaining time in seconds =    52.16996    
 Estimated remaining time in hh:mm:ss =      0 h 00 m 52 s
 Estimated total run time in seconds =    1565.099    
 Estimated total run time in hh:mm:ss =      0 h 26 m 05 s
 We have done    96.66666     % of that
 The run will finish approximately on (in local time): Wed Apr 07, 2021 14:25
 
 Time step #        29050
 Time:    1.332450      seconds
 Elapsed time in seconds =    1515.52682447340     
 Elapsed time in hh:mm:ss =      0 h 25 m 15 s
 Mean elapsed time per time step in seconds =   5.2169599E-02
 Max norm displacement vector U in all slices (m) =    1099.938    
 Time steps done =        29050  out of        30000
 Time steps remaining =          950
 Estimated remaining time in seconds =    49.56112    
 Estimated remaining time in hh:mm:ss =      0 h 00 m 49 s
 Estimated total run time in seconds =    1565.088    
 Estimated total run time in hh:mm:ss =      0 h 26 m 05 s
 We have done    96.83334     % of that
 The run will finish approximately on (in local time): Wed Apr 07, 2021 14:25
 
 Time step #        29100
 Time:    1.334950      seconds
 Elapsed time in seconds =    1518.12471314706     
 Elapsed time in hh:mm:ss =      0 h 25 m 18 s
 Mean elapsed time per time step in seconds =   5.2169234E-02
 Max norm displacement vector U in all slices (m) =    1119.041    
 Time steps done =        29100  out of        30000
 Time steps remaining =          900
 Estimated remaining time in seconds =    46.95231    
 Estimated remaining time in hh:mm:ss =      0 h 00 m 46 s
 Estimated total run time in seconds =    1565.077    
 Estimated total run time in hh:mm:ss =      0 h 26 m 05 s
 We have done    97.00000     % of that
 The run will finish approximately on (in local time): Wed Apr 07, 2021 14:25
 
 Time step #        29150
 Time:    1.337450      seconds
 Elapsed time in seconds =    1520.72275039181     
 Elapsed time in hh:mm:ss =      0 h 25 m 20 s
 Mean elapsed time per time step in seconds =   5.2168876E-02
 Max norm displacement vector U in all slices (m) =    1144.645    
 Time steps done =        29150  out of        30000
 Time steps remaining =          850
 Estimated remaining time in seconds =    44.34354    
 Estimated remaining time in hh:mm:ss =      0 h 00 m 44 s
 Estimated total run time in seconds =    1565.066    
 Estimated total run time in hh:mm:ss =      0 h 26 m 05 s
 We have done    97.16666     % of that
 The run will finish approximately on (in local time): Wed Apr 07, 2021 14:25
 
 Time step #        29200
 Time:    1.339950      seconds
 Elapsed time in seconds =    1523.32133645192     
 Elapsed time in hh:mm:ss =      0 h 25 m 23 s
 Mean elapsed time per time step in seconds =   5.2168541E-02
 Max norm displacement vector U in all slices (m) =    1158.129    
 Time steps done =        29200  out of        30000
 Time steps remaining =          800
 Estimated remaining time in seconds =    41.73483    
 Estimated remaining time in hh:mm:ss =      0 h 00 m 41 s
 Estimated total run time in seconds =    1565.056    
 Estimated total run time in hh:mm:ss =      0 h 26 m 05 s
 We have done    97.33334     % of that
 The run will finish approximately on (in local time): Wed Apr 07, 2021 14:25
 
 Time step #        29250
 Time:    1.342450      seconds
 Elapsed time in seconds =    1525.91948061064     
 Elapsed time in hh:mm:ss =      0 h 25 m 25 s
 Mean elapsed time per time step in seconds =   5.2168187E-02
 Max norm displacement vector U in all slices (m) =    1174.153    
 Time steps done =        29250  out of        30000
 Time steps remaining =          750
 Estimated remaining time in seconds =    39.12614    
 Estimated remaining time in hh:mm:ss =      0 h 00 m 39 s
 Estimated total run time in seconds =    1565.046    
 Estimated total run time in hh:mm:ss =      0 h 26 m 05 s
 We have done    97.50000     % of that
 The run will finish approximately on (in local time): Wed Apr 07, 2021 14:25
 
 Time step #        29300
 Time:    1.344950      seconds
 Elapsed time in seconds =    1528.51746772043     
 Elapsed time in hh:mm:ss =      0 h 25 m 28 s
 Mean elapsed time per time step in seconds =   5.2167833E-02
 Max norm displacement vector U in all slices (m) =    1194.639    
 Time steps done =        29300  out of        30000
 Time steps remaining =          700
 Estimated remaining time in seconds =    36.51748    
 Estimated remaining time in hh:mm:ss =      0 h 00 m 36 s
 Estimated total run time in seconds =    1565.035    
 Estimated total run time in hh:mm:ss =      0 h 26 m 05 s
 We have done    97.66666     % of that
 The run will finish approximately on (in local time): Wed Apr 07, 2021 14:25
 
 Time step #        29350
 Time:    1.347450      seconds
 Elapsed time in seconds =    1531.11619574763     
 Elapsed time in hh:mm:ss =      0 h 25 m 31 s
 Mean elapsed time per time step in seconds =   5.2167501E-02
 Max norm displacement vector U in all slices (m) =    1227.976    
 Time steps done =        29350  out of        30000
 Time steps remaining =          650
 Estimated remaining time in seconds =    33.90888    
 Estimated remaining time in hh:mm:ss =      0 h 00 m 33 s
 Estimated total run time in seconds =    1565.025    
 Estimated total run time in hh:mm:ss =      0 h 26 m 05 s
 We have done    97.83334     % of that
 The run will finish approximately on (in local time): Wed Apr 07, 2021 14:25
 
 Time step #        29400
 Time:    1.349950      seconds
 Elapsed time in seconds =    1533.71417207643     
 Elapsed time in hh:mm:ss =      0 h 25 m 33 s
 Mean elapsed time per time step in seconds =   5.2167147E-02
 Max norm displacement vector U in all slices (m) =    1262.678    
 Time steps done =        29400  out of        30000
 Time steps remaining =          600
 Estimated remaining time in seconds =    31.30029    
 Estimated remaining time in hh:mm:ss =      0 h 00 m 31 s
 Estimated total run time in seconds =    1565.014    
 Estimated total run time in hh:mm:ss =      0 h 26 m 05 s
 We have done    98.00000     % of that
 The run will finish approximately on (in local time): Wed Apr 07, 2021 14:25
 
 Time step #        29450
 Time:    1.352450      seconds
 Elapsed time in seconds =    1536.31390706822     
 Elapsed time in hh:mm:ss =      0 h 25 m 36 s
 Mean elapsed time per time step in seconds =   5.2166857E-02
 Max norm displacement vector U in all slices (m) =    1293.596    
 Time steps done =        29450  out of        30000
 Time steps remaining =          550
 Estimated remaining time in seconds =    28.69177    
 Estimated remaining time in hh:mm:ss =      0 h 00 m 28 s
 Estimated total run time in seconds =    1565.006    
 Estimated total run time in hh:mm:ss =      0 h 26 m 05 s
 We have done    98.16666     % of that
 The run will finish approximately on (in local time): Wed Apr 07, 2021 14:24
 
 Time step #        29500
 Time:    1.354950      seconds
 Elapsed time in seconds =    1538.91080118157     
 Elapsed time in hh:mm:ss =      0 h 25 m 38 s
 Mean elapsed time per time step in seconds =   5.2166469E-02
 Max norm displacement vector U in all slices (m) =    1321.134    
 Time steps done =        29500  out of        30000
 Time steps remaining =          500
 Estimated remaining time in seconds =    26.08323    
 Estimated remaining time in hh:mm:ss =      0 h 00 m 26 s
 Estimated total run time in seconds =    1564.994    
 Estimated total run time in hh:mm:ss =      0 h 26 m 04 s
 We have done    98.33334     % of that
 The run will finish approximately on (in local time): Wed Apr 07, 2021 14:24
 
 Time step #        29550
 Time:    1.357450      seconds
 Elapsed time in seconds =    1541.50840075407     
 Elapsed time in hh:mm:ss =      0 h 25 m 41 s
 Mean elapsed time per time step in seconds =   5.2166104E-02
 Max norm displacement vector U in all slices (m) =    1354.450    
 Time steps done =        29550  out of        30000
 Time steps remaining =          450
 Estimated remaining time in seconds =    23.47475    
 Estimated remaining time in hh:mm:ss =      0 h 00 m 23 s
 Estimated total run time in seconds =    1564.983    
 Estimated total run time in hh:mm:ss =      0 h 26 m 04 s
 We have done    98.50000     % of that
 The run will finish approximately on (in local time): Wed Apr 07, 2021 14:24
 
 Time step #        29600
 Time:    1.359950      seconds
 Elapsed time in seconds =    1544.10634101368     
 Elapsed time in hh:mm:ss =      0 h 25 m 44 s
 Mean elapsed time per time step in seconds =   5.2165754E-02
 Max norm displacement vector U in all slices (m) =    1378.385    
 Time steps done =        29600  out of        30000
 Time steps remaining =          400
 Estimated remaining time in seconds =    20.86630    
 Estimated remaining time in hh:mm:ss =      0 h 00 m 20 s
 Estimated total run time in seconds =    1564.973    
 Estimated total run time in hh:mm:ss =      0 h 26 m 04 s
 We have done    98.66666     % of that
 The run will finish approximately on (in local time): Wed Apr 07, 2021 14:25
 
 Time step #        29650
 Time:    1.362450      seconds
 Elapsed time in seconds =    1546.70448739082     
 Elapsed time in hh:mm:ss =      0 h 25 m 46 s
 Mean elapsed time per time step in seconds =   5.2165411E-02
 Max norm displacement vector U in all slices (m) =    1392.768    
 Time steps done =        29650  out of        30000
 Time steps remaining =          350
 Estimated remaining time in seconds =    18.25789    
 Estimated remaining time in hh:mm:ss =      0 h 00 m 18 s
 Estimated total run time in seconds =    1564.962    
 Estimated total run time in hh:mm:ss =      0 h 26 m 04 s
 We have done    98.83334     % of that
 The run will finish approximately on (in local time): Wed Apr 07, 2021 14:25
 
 Time step #        29700
 Time:    1.364950      seconds
 Elapsed time in seconds =    1549.30240576528     
 Elapsed time in hh:mm:ss =      0 h 25 m 49 s
 Mean elapsed time per time step in seconds =   5.2165065E-02
 Max norm displacement vector U in all slices (m) =    1411.948    
 Time steps done =        29700  out of        30000
 Time steps remaining =          300
 Estimated remaining time in seconds =    15.64952    
 Estimated remaining time in hh:mm:ss =      0 h 00 m 15 s
 Estimated total run time in seconds =    1564.952    
 Estimated total run time in hh:mm:ss =      0 h 26 m 04 s
 We have done    99.00000     % of that
 The run will finish approximately on (in local time): Wed Apr 07, 2021 14:25
 
 Time step #        29750
 Time:    1.367450      seconds
 Elapsed time in seconds =    1551.90079145227     
 Elapsed time in hh:mm:ss =      0 h 25 m 51 s
 Mean elapsed time per time step in seconds =   5.2164733E-02
 Max norm displacement vector U in all slices (m) =    1428.573    
 Time steps done =        29750  out of        30000
 Time steps remaining =          250
 Estimated remaining time in seconds =    13.04118    
 Estimated remaining time in hh:mm:ss =      0 h 00 m 13 s
 Estimated total run time in seconds =    1564.942    
 Estimated total run time in hh:mm:ss =      0 h 26 m 04 s
 We have done    99.16666     % of that
 The run will finish approximately on (in local time): Wed Apr 07, 2021 14:25
 
 Time step #        29800
 Time:    1.369950      seconds
 Elapsed time in seconds =    1554.49879172910     
 Elapsed time in hh:mm:ss =      0 h 25 m 54 s
 Mean elapsed time per time step in seconds =   5.2164391E-02
 Max norm displacement vector U in all slices (m) =    1437.660    
 Time steps done =        29800  out of        30000
 Time steps remaining =          200
 Estimated remaining time in seconds =    10.43288    
 Estimated remaining time in hh:mm:ss =      0 h 00 m 10 s
 Estimated total run time in seconds =    1564.932    
 Estimated total run time in hh:mm:ss =      0 h 26 m 04 s
 We have done    99.33334     % of that
 The run will finish approximately on (in local time): Wed Apr 07, 2021 14:25
 
 Time step #        29850
 Time:    1.372450      seconds
 Elapsed time in seconds =    1557.09703516681     
 Elapsed time in hh:mm:ss =      0 h 25 m 57 s
 Mean elapsed time per time step in seconds =   5.2164055E-02
 Max norm displacement vector U in all slices (m) =    1439.654    
 Time steps done =        29850  out of        30000
 Time steps remaining =          150
 Estimated remaining time in seconds =    7.824608    
 Estimated remaining time in hh:mm:ss =      0 h 00 m 07 s
 Estimated total run time in seconds =    1564.922    
 Estimated total run time in hh:mm:ss =      0 h 26 m 04 s
 We have done    99.50000     % of that
 The run will finish approximately on (in local time): Wed Apr 07, 2021 14:25
 
 Time step #        29900
 Time:    1.374950      seconds
 Elapsed time in seconds =    1559.69480785448     
 Elapsed time in hh:mm:ss =      0 h 25 m 59 s
 Mean elapsed time per time step in seconds =   5.2163705E-02
 Max norm displacement vector U in all slices (m) =    1445.144    
 Time steps done =        29900  out of        30000
 Time steps remaining =          100
 Estimated remaining time in seconds =    5.216371    
 Estimated remaining time in hh:mm:ss =      0 h 00 m 05 s
 Estimated total run time in seconds =    1564.911    
 Estimated total run time in hh:mm:ss =      0 h 26 m 04 s
 We have done    99.66666     % of that
 The run will finish approximately on (in local time): Wed Apr 07, 2021 14:25
 
 Time step #        29950
 Time:    1.377450      seconds
 Elapsed time in seconds =    1562.29251363222     
 Elapsed time in hh:mm:ss =      0 h 26 m 02 s
 Mean elapsed time per time step in seconds =   5.2163355E-02
 Max norm displacement vector U in all slices (m) =    1448.161    
 Time steps done =        29950  out of        30000
 Time steps remaining =           50
 Estimated remaining time in seconds =    2.608168    
 Estimated remaining time in hh:mm:ss =      0 h 00 m 02 s
 Estimated total run time in seconds =    1564.901    
 Estimated total run time in hh:mm:ss =      0 h 26 m 04 s
 We have done    99.83334     % of that
 The run will finish approximately on (in local time): Wed Apr 07, 2021 14:25
 
 Time step #        30000
 Time:    1.379950      seconds
 Elapsed time in seconds =    1564.89041138720     
 Elapsed time in hh:mm:ss =      0 h 26 m 04 s
 Mean elapsed time per time step in seconds =   5.2163012E-02
 Max norm displacement vector U in all slices (m) =    1445.802    
 Time steps done =        30000  out of        30000
 Time steps remaining =            0
 Estimated remaining time in seconds =   0.0000000E+00
 Estimated remaining time in hh:mm:ss =      0 h 00 m 00 s
 Estimated total run time in seconds =    1564.890    
 Estimated total run time in hh:mm:ss =      0 h 26 m 04 s
 We have done    100.0000     % of that
 
 
 Total number of time steps written:        30000
 Writing the seismograms in parallel took    2.390573      seconds
 
 Time-Loop Complete. Timing info:
 Total elapsed time in seconds =    1567.35448192712     
 Total elapsed time in hh:mm:ss =      0 h 26 m 07 s
 
 End of the simulation
 
